2320017
  -OEChem-09082001253D

 58 62  0     0  0  0  0  0  0999 V2000
   -0.0193    2.8981   -0.4155 S   0  0  0  0  0  0  0  0  0  0  0  0
   -6.7197   -0.8503   -0.2272 O   0  0  0  0  0  0  0  0  0  0  0  0
    6.1623   -2.3880    0.3541 O   0  0  0  0  0  0  0  0  0  0  0  0
   -4.2793    0.0354    0.8486 N   0  0  0  0  0  0  0  0  0  0  0  0
   -1.9036    0.1648    0.6475 N   0  0  0  0  0  0  0  0  0  0  0  0
   -2.7754    1.2055    2.3635 N   0  0  0  0  0  0  0  0  0  0  0  0
    2.2743    1.5432   -0.4463 N   0  0  0  0  0  0  0  0  0  0  0  0
   -1.4063    1.3805    2.3975 N   0  0  0  0  0  0  0  0  0  0  0  0
    1.9279   -1.3479    1.7647 N   0  0  0  0  0  0  0  0  0  0  0  0
   -5.3249    0.9988    0.4827 C   0  0  0  0  0  0  0  0  0  0  0  0
   -4.7728   -1.3121    1.1499 C   0  0  0  0  0  0  0  0  0  0  0  0
   -3.0565    0.4736    1.3067 C   0  0  0  0  0  0  0  0  0  0  0  0
   -6.1873    0.4131   -0.6286 C   0  0  0  0  0  0  0  0  0  0  0  0
   -5.6711   -1.7894    0.0129 C   0  0  0  0  0  0  0  0  0  0  0  0
   -0.9019    0.7495    1.3614 C   0  0  0  0  0  0  0  0  0  0  0  0
   -1.7872   -0.5951   -0.5195 C   0  0  0  0  0  0  0  0  0  0  0  0
    0.4358    0.6205    0.9437 C   0  0  0  0  0  0  0  0  0  0  0  0
    0.9803    1.5059    0.0928 C   0  0  0  0  0  0  0  0  0  0  0  0
    2.4490    2.6896   -1.2425 C   0  0  0  0  0  0  0  0  0  0  0  0
    3.2630    0.5434   -0.2423 C   0  0  0  0  0  0  0  0  0  0  0  0
   -1.6184   -1.9693   -0.4252 C   0  0  0  0  0  0  0  0  0  0  0  0
   -1.8458    0.0357   -1.7540 C   0  0  0  0  0  0  0  0  0  0  0  0
    1.3588    3.4798   -1.3230 C   0  0  0  0  0  0  0  0  0  0  0  0
    3.7052    2.9729   -2.0033 C   0  0  0  0  0  0  0  0  0  0  0  0
   -1.5055   -2.7284   -1.5899 C   0  0  0  0  0  0  0  0  0  0  0  0
   -1.7330   -0.7236   -2.9187 C   0  0  0  0  0  0  0  0  0  0  0  0
    4.1719    0.6462    0.8208 C   0  0  0  0  0  0  0  0  0  0  0  0
    3.3463   -0.5620   -1.1017 C   0  0  0  0  0  0  0  0  0  0  0  0
    1.2716   -0.4662    1.3920 C   0  0  0  0  0  0  0  0  0  0  0  0
   -1.5628   -2.1057   -2.8366 C   0  0  0  0  0  0  0  0  0  0  0  0
    5.1432   -0.3350    1.0202 C   0  0  0  0  0  0  0  0  0  0  0  0
    4.3175   -1.5431   -0.9023 C   0  0  0  0  0  0  0  0  0  0  0  0
    5.2159   -1.4298    0.1587 C   0  0  0  0  0  0  0  0  0  0  0  0
    7.0479   -2.2105    1.4587 C   0  0  0  0  0  0  0  0  0  0  0  0
   -4.8860    1.9448    0.1446 H   0  0  0  0  0  0  0  0  0  0  0  0
   -5.9383    1.2048    1.3680 H   0  0  0  0  0  0  0  0  0  0  0  0
   -5.3484   -1.2682    2.0825 H   0  0  0  0  0  0  0  0  0  0  0  0
   -3.9539   -2.0223    1.3012 H   0  0  0  0  0  0  0  0  0  0  0  0
   -7.0283    1.0804   -0.8415 H   0  0  0  0  0  0  0  0  0  0  0  0
   -5.6157    0.2889   -1.5564 H   0  0  0  0  0  0  0  0  0  0  0  0
   -5.0997   -1.9394   -0.9112 H   0  0  0  0  0  0  0  0  0  0  0  0
   -6.1314   -2.7464    0.2779 H   0  0  0  0  0  0  0  0  0  0  0  0
   -1.5682   -2.4669    0.5398 H   0  0  0  0  0  0  0  0  0  0  0  0
   -2.0046    1.1062   -1.8390 H   0  0  0  0  0  0  0  0  0  0  0  0
    1.2974    4.3886   -1.9065 H   0  0  0  0  0  0  0  0  0  0  0  0
    3.9277    2.1579   -2.6994 H   0  0  0  0  0  0  0  0  0  0  0  0
    4.5505    3.0883   -1.3174 H   0  0  0  0  0  0  0  0  0  0  0  0
    3.6268    3.8953   -2.5888 H   0  0  0  0  0  0  0  0  0  0  0  0
   -1.3724   -3.8044   -1.5259 H   0  0  0  0  0  0  0  0  0  0  0  0
   -1.7837   -0.2395   -3.8896 H   0  0  0  0  0  0  0  0  0  0  0  0
    4.1266    1.4954    1.4987 H   0  0  0  0  0  0  0  0  0  0  0  0
    2.6519   -0.6632   -1.9326 H   0  0  0  0  0  0  0  0  0  0  0  0
   -1.4763   -2.6970   -3.7434 H   0  0  0  0  0  0  0  0  0  0  0  0
    5.8087   -0.1847    1.8633 H   0  0  0  0  0  0  0  0  0  0  0  0
    4.3687   -2.3939   -1.5761 H   0  0  0  0  0  0  0  0  0  0  0  0
    6.5096   -2.2270    2.4125 H   0  0  0  0  0  0  0  0  0  0  0  0
    7.6600   -1.3096    1.3430 H   0  0  0  0  0  0  0  0  0  0  0  0
    7.7335   -3.0642    1.4638 H   0  0  0  0  0  0  0  0  0  0  0  0
  1 18  1  0  0  0  0
  1 23  1  0  0  0  0
  2 13  1  0  0  0  0
  2 14  1  0  0  0  0
  3 33  1  0  0  0  0
  3 34  1  0  0  0  0
  4 10  1  0  0  0  0
  4 11  1  0  0  0  0
  4 12  1  0  0  0  0
  5 12  1  0  0  0  0
  5 15  1  0  0  0  0
  5 16  1  0  0  0  0
  6  8  1  0  0  0  0
  6 12  2  0  0  0  0
  7 18  1  0  0  0  0
  7 19  1  0  0  0  0
  7 20  1  0  0  0  0
  8 15  2  0  0  0  0
  9 29  3  0  0  0  0
 10 13  1  0  0  0  0
 10 35  1  0  0  0  0
 10 36  1  0  0  0  0
 11 14  1  0  0  0  0
 11 37  1  0  0  0  0
 11 38  1  0  0  0  0
 13 39  1  0  0  0  0
 13 40  1  0  0  0  0
 14 41  1  0  0  0  0
 14 42  1  0  0  0  0
 15 17  1  0  0  0  0
 16 21  2  0  0  0  0
 16 22  1  0  0  0  0
 17 18  2  0  0  0  0
 17 29  1  0  0  0  0
 19 23  2  0  0  0  0
 19 24  1  0  0  0  0
 20 27  2  0  0  0  0
 20 28  1  0  0  0  0
 21 25  1  0  0  0  0
 21 43  1  0  0  0  0
 22 26  2  0  0  0  0
 22 44  1  0  0  0  0
 23 45  1  0  0  0  0
 24 46  1  0  0  0  0
 24 47  1  0  0  0  0
 24 48  1  0  0  0  0
 25 30  2  0  0  0  0
 25 49  1  0  0  0  0
 26 30  1  0  0  0  0
 26 50  1  0  0  0  0
 27 31  1  0  0  0  0
 27 51  1  0  0  0  0
 28 32  2  0  0  0  0
 28 52  1  0  0  0  0
 30 53  1  0  0  0  0
 31 33  2  0  0  0  0
 31 54  1  0  0  0  0
 32 33  1  0  0  0  0
 32 55  1  0  0  0  0
 34 56  1  0  0  0  0
 34 57  1  0  0  0  0
 34 58  1  0  0  0  0
M  END
> <PUBCHEM_COMPOUND_CID>
2320017

> <PUBCHEM_CONFORMER_RMSD>
1

> <PUBCHEM_CONFORMER_DIVERSEORDER>
1
3
2
4

> <PUBCHEM_MMFF94_PARTIAL_CHARGES>
44
1 -0.2
10 0.37
11 0.37
12 0.27
13 0.28
14 0.28
15 0.14
16 -0.02
17 0.11
18 0.2
19 -0.04
2 -0.56
20 0.1
21 -0.15
22 -0.15
23 -0.05
24 0.14
25 -0.15
26 -0.15
27 -0.15
28 -0.15
29 0.49
3 -0.36
30 -0.15
31 -0.15
32 -0.15
33 0.08
34 0.28
4 -0.82
43 0.15
44 0.15
45 0.15
49 0.15
5 0.33
50 0.15
51 0.15
52 0.15
53 0.15
54 0.15
55 0.15
6 -0.34
7 -0.3
8 -0.34
9 -0.56

> <PUBCHEM_EFFECTIVE_ROTOR_COUNT>
6.6

> <PUBCHEM_PHARMACOPHORE_FEATURES>
10
1 2 acceptor
1 3 acceptor
1 7 cation
1 9 acceptor
4 4 5 6 12 cation
5 1 7 18 19 23 rings
5 5 6 8 12 15 rings
6 16 21 22 25 26 30 rings
6 2 4 10 11 13 14 rings
6 20 27 28 31 32 33 rings

> <PUBCHEM_HEAVY_ATOM_COUNT>
34

> <PUBCHEM_ATOM_DEF_STEREO_COUNT>
0

> <PUBCHEM_ATOM_UDEF_STEREO_COUNT>
0

> <PUBCHEM_BOND_DEF_STEREO_COUNT>
1

> <PUBCHEM_BOND_UDEF_STEREO_COUNT>
0

> <PUBCHEM_ISOTOPIC_ATOM_COUNT>
0

> <PUBCHEM_COMPONENT_COUNT>
1

> <PUBCHEM_CACTVS_TAUTO_COUNT>
1

> <PUBCHEM_CONFORMER_ID>
0023669100000001

> <PUBCHEM_MMFF94_ENERGY>
155.9996

> <PUBCHEM_FEATURE_SELFOVERLAP>
50.749

> <PUBCHEM_SHAPE_FINGERPRINT>
10369192 42 16375258296461655316
10906281 52 14404912439225454531
11135609 12 18408877456607086774
11135926 11 18190734444351987556
11578080 2 18056732498939262017
12035758 1 15698000768932081371
12107698 1 18187929447737899060
12156800 1 17173239515553284141
12236239 1 18342177765024129769
12422481 6 17916875603417022638
12788726 201 17488483994935896321
13165053 103 17172058653641577242
13583140 156 17902251218874344833
13782708 43 17022626398409080595
13911987 19 17531546299709233650
14955137 171 18409445890690536776
15021287 119 18408882949548505159
15131766 46 17899421067165066372
15444296 8 17397819081900773722
15849732 13 18343577426230620077
17349148 13 17632034017118949997
1813 80 18336274449014842308
20511986 3 18271241750414868204
20600515 1 16559038215779025017
208703 8 18048027472905352626
21781051 124 17845099652930720599
23559900 14 18334573598926315729
3383291 50 17561081401891547167
437815 12 17967534553689383228
5080951 261 17900796290508535572
513202 73 17974011639956838674
57527358 35 17970075633332193705

> <PUBCHEM_SHAPE_MULTIPOLES>
661.93
13.79
3.25
2.35
0.02
1.53
0.75
-8.14
-3.26
-3.09
1.5
0.73
-0.24
-2.69

> <PUBCHEM_SHAPE_SELFOVERLAP>
1439.059

> <PUBCHEM_SHAPE_VOLUME>
363.9

> <PUBCHEM_COORDINATE_TYPE>
2
5
10

$$$$
