869896
  -OEChem-09082001403D

 43 45  0     0  0  0  0  0  0999 V2000
    7.3833    0.5804    1.1017 F   0  0  0  0  0  0  0  0  0  0  0  0
    7.3506   -1.2739   -0.0228 F   0  0  0  0  0  0  0  0  0  0  0  0
    7.3421    0.6309   -1.0719 F   0  0  0  0  0  0  0  0  0  0  0  0
   -8.0402    0.9531   -0.5467 O   0  0  0  0  0  0  0  0  0  0  0  0
   -1.7166    0.0120   -0.0168 N   0  0  0  0  0  0  0  0  0  0  0  0
    1.1617   -0.0003   -0.0194 N   0  0  0  0  0  0  0  0  0  0  0  0
    3.2459   -0.5817   -1.0588 N   0  0  0  0  0  0  0  0  0  0  0  0
   -0.9681   -1.2448   -0.0105 C   0  0  0  0  0  0  0  0  0  0  0  0
   -0.9578    1.2625   -0.0270 C   0  0  0  0  0  0  0  0  0  0  0  0
    0.4031   -1.0691   -0.6688 C   0  0  0  0  0  0  0  0  0  0  0  0
    0.4131    1.0764    0.6290 C   0  0  0  0  0  0  0  0  0  0  0  0
   -3.1090    0.0176   -0.0136 C   0  0  0  0  0  0  0  0  0  0  0  0
    2.5541   -0.0056   -0.0204 C   0  0  0  0  0  0  0  0  0  0  0  0
   -3.8485   -1.0215    0.5986 C   0  0  0  0  0  0  0  0  0  0  0  0
   -3.8423    1.0622   -0.6239 C   0  0  0  0  0  0  0  0  0  0  0  0
    3.2366    0.5845    1.0590 C   0  0  0  0  0  0  0  0  0  0  0  0
   -5.2435   -1.0165    0.6002 C   0  0  0  0  0  0  0  0  0  0  0  0
   -5.2371    1.0674   -0.6222 C   0  0  0  0  0  0  0  0  0  0  0  0
   -5.9376    0.0280   -0.0102 C   0  0  0  0  0  0  0  0  0  0  0  0
    4.6270    0.5841    1.0737 C   0  0  0  0  0  0  0  0  0  0  0  0
    5.3277    0.0015    0.0234 C   0  0  0  0  0  0  0  0  0  0  0  0
    4.5968   -0.5628   -1.0098 C   0  0  0  0  0  0  0  0  0  0  0  0
   -7.3921    0.0327   -0.0095 C   0  0  0  0  0  0  0  0  0  0  0  0
    6.8148   -0.0160    0.0101 C   0  0  0  0  0  0  0  0  0  0  0  0
   -8.1641   -1.1010    0.6566 C   0  0  0  0  0  0  0  0  0  0  0  0
   -1.5076   -2.0248   -0.5618 H   0  0  0  0  0  0  0  0  0  0  0  0
   -0.8448   -1.5869    1.0245 H   0  0  0  0  0  0  0  0  0  0  0  0
   -1.4897    2.0480    0.5238 H   0  0  0  0  0  0  0  0  0  0  0  0
   -0.8339    1.6015   -1.0630 H   0  0  0  0  0  0  0  0  0  0  0  0
    0.9432   -2.0214   -0.6015 H   0  0  0  0  0  0  0  0  0  0  0  0
    0.2847   -0.8284   -1.7324 H   0  0  0  0  0  0  0  0  0  0  0  0
    0.9499    2.0302    0.5536 H   0  0  0  0  0  0  0  0  0  0  0  0
    0.2867    0.8408    1.6931 H   0  0  0  0  0  0  0  0  0  0  0  0
   -3.3396   -1.8449    1.0949 H   0  0  0  0  0  0  0  0  0  0  0  0
   -3.3289    1.8816   -1.1221 H   0  0  0  0  0  0  0  0  0  0  0  0
    2.7109    1.0297    1.8982 H   0  0  0  0  0  0  0  0  0  0  0  0
   -5.7490   -1.8429    1.0898 H   0  0  0  0  0  0  0  0  0  0  0  0
   -5.7558    1.8903   -1.1069 H   0  0  0  0  0  0  0  0  0  0  0  0
    5.1482    1.0378    1.9118 H   0  0  0  0  0  0  0  0  0  0  0  0
    5.0885   -1.0322   -1.8562 H   0  0  0  0  0  0  0  0  0  0  0  0
   -7.9342   -1.1387    1.7246 H   0  0  0  0  0  0  0  0  0  0  0  0
   -7.9359   -2.0519    0.1684 H   0  0  0  0  0  0  0  0  0  0  0  0
   -9.2374   -0.9149    0.5485 H   0  0  0  0  0  0  0  0  0  0  0  0
  1 24  1  0  0  0  0
  2 24  1  0  0  0  0
  3 24  1  0  0  0  0
  4 23  2  0  0  0  0
  5  8  1  0  0  0  0
  5  9  1  0  0  0  0
  5 12  1  0  0  0  0
  6 10  1  0  0  0  0
  6 11  1  0  0  0  0
  6 13  1  0  0  0  0
  7 13  2  0  0  0  0
  7 22  1  0  0  0  0
  8 10  1  0  0  0  0
  8 26  1  0  0  0  0
  8 27  1  0  0  0  0
  9 11  1  0  0  0  0
  9 28  1  0  0  0  0
  9 29  1  0  0  0  0
 10 30  1  0  0  0  0
 10 31  1  0  0  0  0
 11 32  1  0  0  0  0
 11 33  1  0  0  0  0
 12 14  2  0  0  0  0
 12 15  1  0  0  0  0
 13 16  1  0  0  0  0
 14 17  1  0  0  0  0
 14 34  1  0  0  0  0
 15 18  2  0  0  0  0
 15 35  1  0  0  0  0
 16 20  2  0  0  0  0
 16 36  1  0  0  0  0
 17 19  2  0  0  0  0
 17 37  1  0  0  0  0
 18 19  1  0  0  0  0
 18 38  1  0  0  0  0
 19 23  1  0  0  0  0
 20 21  1  0  0  0  0
 20 39  1  0  0  0  0
 21 22  2  0  0  0  0
 21 24  1  0  0  0  0
 22 40  1  0  0  0  0
 23 25  1  0  0  0  0
 25 41  1  0  0  0  0
 25 42  1  0  0  0  0
 25 43  1  0  0  0  0
M  END
> <PUBCHEM_COMPOUND_CID>
869896

> <PUBCHEM_CONFORMER_RMSD>
0.8

> <PUBCHEM_CONFORMER_DIVERSEORDER>
1
5
8
12
16
17
13
7
2
6
3
11
4
14
10
9
15

> <PUBCHEM_MMFF94_PARTIAL_CHARGES>
32
1 -0.34
10 0.37
11 0.37
12 0.1
13 0.41
14 -0.15
15 -0.15
16 -0.15
17 -0.15
18 -0.15
19 0.09
2 -0.34
20 -0.15
21 -0.14
22 0.16
23 0.42
24 1.16
25 0.06
3 -0.34
34 0.15
35 0.15
36 0.15
37 0.15
38 0.15
39 0.15
4 -0.57
40 0.15
5 -0.84
6 -0.84
7 -0.62
8 0.37
9 0.37

> <PUBCHEM_EFFECTIVE_ROTOR_COUNT>
5.2

> <PUBCHEM_PHARMACOPHORE_FEATURES>
6
1 4 acceptor
1 5 cation
3 6 7 13 cation
6 12 14 15 17 18 19 rings
6 5 6 8 9 10 11 rings
6 7 13 16 20 21 22 rings

> <PUBCHEM_HEAVY_ATOM_COUNT>
25

> <PUBCHEM_ATOM_DEF_STEREO_COUNT>
0

> <PUBCHEM_ATOM_UDEF_STEREO_COUNT>
0

> <PUBCHEM_BOND_DEF_STEREO_COUNT>
0

> <PUBCHEM_BOND_UDEF_STEREO_COUNT>
0

> <PUBCHEM_ISOTOPIC_ATOM_COUNT>
0

> <PUBCHEM_COMPONENT_COUNT>
1

> <PUBCHEM_CACTVS_TAUTO_COUNT>
2

> <PUBCHEM_CONFORMER_ID>
000D460800000001

> <PUBCHEM_MMFF94_ENERGY>
85.1644

> <PUBCHEM_FEATURE_SELFOVERLAP>
30.446

> <PUBCHEM_SHAPE_FINGERPRINT>
10 15 18341885330161291824
10050765 1 18051978017481077455
10299344 5 16660642960020126267
11315181 36 18261397754571616761
11524674 6 17775283889549391799
11719270 70 18412543185398779366
12089408 11 17240202131600404545
12236239 1 17385723595691718664
12516196 113 17632295674652294473
12838862 33 18271791424323184087
13073987 5 18200315407480048843
13533116 47 14261360111604974086
13685833 64 18131071532327470616
13885169 127 18409449155430307297
14123256 10 17989488515282862253
14170010 4 17418372506946961400
14251764 18 15936408940107488483
14251764 46 18410292514474995528
14933364 13 18333449850217897412
15183329 4 18040715857454112161
15419008 47 18342733014270819369
15461852 350 18336540599827972175
15840311 113 17895199939816848020
15849732 13 18334576853899420789
15927050 60 18408599279528391970
18006028 8 17846499231583260257
19489759 90 17967814942492892673
20238998 120 18413951685168606145
21150785 3 17675926507892438141
21267235 1 18412829087885021697
21315763 28 17894911823596688212
21792961 116 18340764840873979052
22224240 67 16415477155529870590
23035841 295 17167863071634662611
23521765 1 18341894090839325825
23536379 177 17095240306776034024
23559900 14 17489013972620260040
249057 25 16515696506773029901
249057 3 15575002796641542371
3004659 81 17967814967777802564
335352 9 18272088322501087709
33684 2 18408602556544882731
3545911 37 18272932725914210895
4073 2 18130784624460347326
4325135 7 16515401863347279019
5283156 175 17458341918900185048
5758199 1 15339119043885884086
59682541 35 18341049709133297275
59755656 215 18342460314091096662
59755656 520 18410003360208335407
8209 1 18410575084663085421

> <PUBCHEM_SHAPE_MULTIPOLES>
471.85
24.49
1.22
0.97
0.67
0.04
0.03
0.92
0.55
0.81
-0.01
-0.71
-0.04
1.31

> <PUBCHEM_SHAPE_SELFOVERLAP>
1010.931

> <PUBCHEM_SHAPE_VOLUME>
261.7

> <PUBCHEM_COORDINATE_TYPE>
2
5
10

$$$$
