653553
  -OEChem-09082001273D

 62 66  0     1  0  0  0  0  0999 V2000
   -4.3530   -2.7267   -0.0749 O   0  0  0  0  0  0  0  0  0  0  0  0
   -3.2960    4.9688   -0.7714 O   0  0  0  0  0  0  0  0  0  0  0  0
    0.7911    0.2461    0.4100 N   0  0  0  0  0  0  0  0  0  0  0  0
    3.5763   -0.1177   -0.1095 N   0  0  0  0  0  0  0  0  0  0  0  0
   -1.8371   -1.9134    1.0856 N   0  0  0  0  0  0  0  0  0  0  0  0
   -1.4140   -0.3425    2.5196 N   0  0  0  0  0  0  0  0  0  0  0  0
   -2.3324   -2.3560    2.2497 N   0  0  0  0  0  0  0  0  0  0  0  0
   -2.0703   -1.3913    3.1231 N   0  0  0  0  0  0  0  0  0  0  0  0
   -0.6431    0.0806    0.1768 C   0  0  1  0  0  0  0  0  0  0  0  0
    1.4262    0.9084   -0.7358 C   0  0  0  0  0  0  0  0  0  0  0  0
    1.4272   -1.0552    0.6501 C   0  0  0  0  0  0  0  0  0  0  0  0
    2.9180    1.1384   -0.4811 C   0  0  0  0  0  0  0  0  0  0  0  0
    2.9185   -0.8900    0.9520 C   0  0  0  0  0  0  0  0  0  0  0  0
   -3.2073   -2.4193   -0.8870 C   0  0  1  0  0  0  0  0  0  0  0  0
   -1.3019   -0.7134    1.2970 C   0  0  0  0  0  0  0  0  0  0  0  0
   -1.9355   -2.7056   -0.1124 C   0  0  0  0  0  0  0  0  0  0  0  0
   -3.3481   -3.2515   -2.1498 C   0  0  0  0  0  0  0  0  0  0  0  0
   -1.3594    1.3996   -0.0789 C   0  0  0  0  0  0  0  0  0  0  0  0
   -4.8454   -3.2760   -2.3280 C   0  0  0  0  0  0  0  0  0  0  0  0
   -5.3290   -3.3837   -0.8973 C   0  0  0  0  0  0  0  0  0  0  0  0
    4.9629   -0.2429   -0.2507 C   0  0  0  0  0  0  0  0  0  0  0  0
   -1.9221    1.6227   -1.3183 C   0  0  0  0  0  0  0  0  0  0  0  0
   -1.4224    2.3309    0.9368 C   0  0  0  0  0  0  0  0  0  0  0  0
    5.5542   -1.4918   -0.5269 C   0  0  0  0  0  0  0  0  0  0  0  0
    5.8096    0.8762   -0.1219 C   0  0  0  0  0  0  0  0  0  0  0  0
   -2.5775    2.8316   -1.5527 C   0  0  0  0  0  0  0  0  0  0  0  0
   -2.0779    3.5396    0.7025 C   0  0  0  0  0  0  0  0  0  0  0  0
   -2.6554    3.7900   -0.5422 C   0  0  0  0  0  0  0  0  0  0  0  0
    6.9363   -1.6167   -0.6685 C   0  0  0  0  0  0  0  0  0  0  0  0
    7.1916    0.7514   -0.2637 C   0  0  0  0  0  0  0  0  0  0  0  0
    7.7549   -0.4952   -0.5369 C   0  0  0  0  0  0  0  0  0  0  0  0
   -3.3388    5.9046    0.3048 C   0  0  0  0  0  0  0  0  0  0  0  0
   -0.7474   -0.4980   -0.7494 H   0  0  0  0  0  0  0  0  0  0  0  0
    0.9933    1.8957   -0.9289 H   0  0  0  0  0  0  0  0  0  0  0  0
    1.3021    0.3111   -1.6497 H   0  0  0  0  0  0  0  0  0  0  0  0
    1.3052   -1.7164   -0.2186 H   0  0  0  0  0  0  0  0  0  0  0  0
    1.0042   -1.5695    1.5194 H   0  0  0  0  0  0  0  0  0  0  0  0
    3.0459    1.8776    0.3203 H   0  0  0  0  0  0  0  0  0  0  0  0
    3.3605    1.5506   -1.3966 H   0  0  0  0  0  0  0  0  0  0  0  0
    3.0555   -0.3738    1.9111 H   0  0  0  0  0  0  0  0  0  0  0  0
    3.3585   -1.8885    1.0565 H   0  0  0  0  0  0  0  0  0  0  0  0
   -3.2745   -1.3527   -1.1353 H   0  0  0  0  0  0  0  0  0  0  0  0
   -1.9195   -3.7544    0.2117 H   0  0  0  0  0  0  0  0  0  0  0  0
   -1.0420   -2.5553   -0.7238 H   0  0  0  0  0  0  0  0  0  0  0  0
   -2.9796   -4.2724   -1.9923 H   0  0  0  0  0  0  0  0  0  0  0  0
   -2.8157   -2.8221   -3.0029 H   0  0  0  0  0  0  0  0  0  0  0  0
   -5.2007   -4.0929   -2.9614 H   0  0  0  0  0  0  0  0  0  0  0  0
   -5.1830   -2.3296   -2.7668 H   0  0  0  0  0  0  0  0  0  0  0  0
   -5.3848   -4.4291   -0.5755 H   0  0  0  0  0  0  0  0  0  0  0  0
   -6.3082   -2.9200   -0.7489 H   0  0  0  0  0  0  0  0  0  0  0  0
   -1.8686    0.8859   -2.1141 H   0  0  0  0  0  0  0  0  0  0  0  0
   -0.9626    2.1634    1.9056 H   0  0  0  0  0  0  0  0  0  0  0  0
    4.9349   -2.3780   -0.6466 H   0  0  0  0  0  0  0  0  0  0  0  0
    5.4080    1.8611    0.1032 H   0  0  0  0  0  0  0  0  0  0  0  0
   -3.0256    3.0209   -2.5243 H   0  0  0  0  0  0  0  0  0  0  0  0
   -2.0977    4.2414    1.5294 H   0  0  0  0  0  0  0  0  0  0  0  0
    7.3749   -2.5867   -0.8841 H   0  0  0  0  0  0  0  0  0  0  0  0
    7.8298    1.6239   -0.1586 H   0  0  0  0  0  0  0  0  0  0  0  0
    8.8310   -0.5923   -0.6473 H   0  0  0  0  0  0  0  0  0  0  0  0
   -3.8948    5.5079    1.1610 H   0  0  0  0  0  0  0  0  0  0  0  0
   -2.3353    6.2440    0.5829 H   0  0  0  0  0  0  0  0  0  0  0  0
   -3.8859    6.7833   -0.0523 H   0  0  0  0  0  0  0  0  0  0  0  0
  1 14  1  0  0  0  0
  1 20  1  0  0  0  0
  2 28  1  0  0  0  0
  2 32  1  0  0  0  0
  3  9  1  0  0  0  0
  3 10  1  0  0  0  0
  3 11  1  0  0  0  0
  4 12  1  0  0  0  0
  4 13  1  0  0  0  0
  4 21  1  0  0  0  0
  5  7  1  0  0  0  0
  5 15  1  0  0  0  0
  5 16  1  0  0  0  0
  6  8  1  0  0  0  0
  6 15  2  0  0  0  0
  7  8  2  0  0  0  0
  9 15  1  0  0  0  0
  9 18  1  0  0  0  0
  9 33  1  0  0  0  0
 10 12  1  0  0  0  0
 10 34  1  0  0  0  0
 10 35  1  0  0  0  0
 11 13  1  0  0  0  0
 11 36  1  0  0  0  0
 11 37  1  0  0  0  0
 12 38  1  0  0  0  0
 12 39  1  0  0  0  0
 13 40  1  0  0  0  0
 13 41  1  0  0  0  0
 14 16  1  0  0  0  0
 14 17  1  0  0  0  0
 14 42  1  0  0  0  0
 16 43  1  0  0  0  0
 16 44  1  0  0  0  0
 17 19  1  0  0  0  0
 17 45  1  0  0  0  0
 17 46  1  0  0  0  0
 18 22  2  0  0  0  0
 18 23  1  0  0  0  0
 19 20  1  0  0  0  0
 19 47  1  0  0  0  0
 19 48  1  0  0  0  0
 20 49  1  0  0  0  0
 20 50  1  0  0  0  0
 21 24  2  0  0  0  0
 21 25  1  0  0  0  0
 22 26  1  0  0  0  0
 22 51  1  0  0  0  0
 23 27  2  0  0  0  0
 23 52  1  0  0  0  0
 24 29  1  0  0  0  0
 24 53  1  0  0  0  0
 25 30  2  0  0  0  0
 25 54  1  0  0  0  0
 26 28  2  0  0  0  0
 26 55  1  0  0  0  0
 27 28  1  0  0  0  0
 27 56  1  0  0  0  0
 29 31  2  0  0  0  0
 29 57  1  0  0  0  0
 30 31  1  0  0  0  0
 30 58  1  0  0  0  0
 31 59  1  0  0  0  0
 32 60  1  0  0  0  0
 32 61  1  0  0  0  0
 32 62  1  0  0  0  0
M  END
> <PUBCHEM_COMPOUND_CID>
653553

> <PUBCHEM_CONFORMER_RMSD>
1

> <PUBCHEM_CONFORMER_DIVERSEORDER>
1
25
91
144
29
107
42
32
90
93
155
73
83
74
158
160
87
77
130
97
98
104
129
111
39
88
78
43
54
151
161
131
5
163
113
114
152
120
14
134
55
100
52
89
136
116
127
30
31
103
12
85
135
164
106
105
15
48
140
24
81
69
137
75
139
156
41
40
60
115
50
110
8
65
44
119
56
82
95
84
142
149
68
109
27
17
92
19
35
108
13
58
49
132
66
3
112
34
99
121
61
59
63
143
64
57
4
141
150
138
53
21
128
36
154
96
79
9
147
6
102
51
101
33
67
122
26
62
94
45
86
46
72
71
118
70
162
124
80
125
22
76
159
146
117
7
20
38
126
10
157
37
18
23
148
133
2
28
153
145
16
11
47
123

> <PUBCHEM_MMFF94_PARTIAL_CHARGES>
38
1 -0.56
10 0.27
11 0.27
12 0.37
13 0.37
14 0.28
15 0.01
16 0.26
18 -0.14
2 -0.36
20 0.28
21 0.1
22 -0.15
23 -0.15
24 -0.15
25 -0.15
26 -0.15
27 -0.15
28 0.08
29 -0.15
3 -0.81
30 -0.15
31 -0.15
32 0.28
4 -0.84
5 0.31
51 0.15
52 0.15
53 0.15
54 0.15
55 0.15
56 0.15
57 0.15
58 0.15
59 0.15
6 -0.34
7 -0.42
9 0.59

> <PUBCHEM_EFFECTIVE_ROTOR_COUNT>
9.2

> <PUBCHEM_PHARMACOPHORE_FEATURES>
10
1 1 acceptor
1 2 acceptor
1 3 cation
1 4 cation
3 5 6 15 cation
5 1 14 17 19 20 rings
5 5 6 7 8 15 rings
6 18 22 23 26 27 28 rings
6 21 24 25 29 30 31 rings
6 3 4 10 11 12 13 rings

> <PUBCHEM_HEAVY_ATOM_COUNT>
32

> <PUBCHEM_ATOM_DEF_STEREO_COUNT>
0

> <PUBCHEM_ATOM_UDEF_STEREO_COUNT>
2

> <PUBCHEM_BOND_DEF_STEREO_COUNT>
0

> <PUBCHEM_BOND_UDEF_STEREO_COUNT>
0

> <PUBCHEM_ISOTOPIC_ATOM_COUNT>
0

> <PUBCHEM_COMPONENT_COUNT>
1

> <PUBCHEM_CACTVS_TAUTO_COUNT>
1

> <PUBCHEM_CONFORMER_ID>
0009F8F100000001

> <PUBCHEM_MMFF94_ENERGY>
100.4089

> <PUBCHEM_FEATURE_SELFOVERLAP>
50.753

> <PUBCHEM_SHAPE_FINGERPRINT>
10483366 6 18340756114313239719
11101153 10 18191032399044359596
11115154 58 18264476464523203991
11297750 10 18058719333603460272
11720765 8 17980472688256858925
12522641 68 18124591977240596581
12633046 712 17131553817821271418
12788726 201 18261940921225340307
13150687 139 18121499055584845941
13540713 5 17969768693146550930
13590594 115 18265899232685356329
13690498 29 18343579668451787046
13757389 114 18265620875027455524
14068700 675 18263918998604410716
14118638 360 18260551178200434364
14294032 229 18340491050121554897
14347332 77 18412823612339711718
14508225 48 18262796405574751781
14556957 393 18189065333622956324
14856354 85 14907625691580271766
15131766 46 14710918650165517462
15198563 99 18412257359324435797
15361156 5 18335999635326634028
15439362 3 17765151670839610276
15927050 60 18193838132888920022
16087824 20 18410854336223895485
16114785 44 18188502267758067907
21703447 108 18267853068758045784
23536364 44 18115291380527876535
23929065 36 18267845298845865200
24771750 20 16674437733640079573
255183 313 18198364900208163329
27425 322 17980758234076927341
283562 15 18333728039544828322
3027735 51 18410289198893021307
3388396 114 17974024030742836140
3610482 184 17896059675882961692
38695281 34 17762048844636392613
4073 2 18187655661791410530
497634 4 17632305609286170634
5080951 261 17774710992087410222
5171179 24 18128528460817497457
531348 171 18339643318151104582
5969126 39 18340201989931587678
59755656 520 18189897513337900868
70251023 43 18267862963856033410

> <PUBCHEM_SHAPE_MULTIPOLES>
616.92
14.9
6.21
1.92
36
7.59
1.01
-7.28
-6.06
-15.7
-1.95
-2.72
-1.38
-0.96

> <PUBCHEM_SHAPE_SELFOVERLAP>
1327.243

> <PUBCHEM_SHAPE_VOLUME>
342.9

> <PUBCHEM_COORDINATE_TYPE>
2
5
10

$$$$
