3244609
  -OEChem-09082001283D

 61 64  0     0  0  0  0  0  0999 V2000
   -5.5546   -1.1124   -1.5713 O   0  0  0  0  0  0  0  0  0  0  0  0
    3.3886    2.1663   -0.3899 O   0  0  0  0  0  0  0  0  0  0  0  0
    8.0709    1.3626   -0.0823 O   0  0  0  0  0  0  0  0  0  0  0  0
   -6.1669    0.3156    0.1561 N   0  0  0  0  0  0  0  0  0  0  0  0
    0.7487   -0.7427   -0.3511 N   0  0  0  0  0  0  0  0  0  0  0  0
    0.0847   -2.6235    0.9824 N   0  0  0  0  0  0  0  0  0  0  0  0
    1.8664   -0.0122   -0.6313 N   0  0  0  0  0  0  0  0  0  0  0  0
   -7.7225    2.6634    0.8109 C   0  0  0  0  0  0  0  0  0  0  0  0
   -6.2618    2.5286    1.2387 C   0  0  0  0  0  0  0  0  0  0  0  0
   -7.9995    1.8470   -0.4504 C   0  0  0  0  0  0  0  0  0  0  0  0
   -5.8580    1.0628    1.3818 C   0  0  0  0  0  0  0  0  0  0  0  0
   -7.5642    0.3948   -0.2748 C   0  0  0  0  0  0  0  0  0  0  0  0
   -5.2613   -0.4627   -0.5643 C   0  0  0  0  0  0  0  0  0  0  0  0
   -3.8413   -0.4898   -0.0578 C   0  0  0  0  0  0  0  0  0  0  0  0
   -2.9649   -1.3731   -0.9334 C   0  0  0  0  0  0  0  0  0  0  0  0
   -1.5384   -1.3906   -0.4750 C   0  0  0  0  0  0  0  0  0  0  0  0
   -0.5495   -0.5552   -0.8632 C   0  0  0  0  0  0  0  0  0  0  0  0
   -1.1170   -2.4554    0.5165 C   0  0  0  0  0  0  0  0  0  0  0  0
    1.0395   -1.7641    0.5486 C   0  0  0  0  0  0  0  0  0  0  0  0
   -0.7236    0.5954   -1.8201 C   0  0  0  0  0  0  0  0  0  0  0  0
    2.3813   -1.6690    0.8383 C   0  0  0  0  0  0  0  0  0  0  0  0
    2.8331   -0.5794    0.0871 C   0  0  0  0  0  0  0  0  0  0  0  0
   -2.1717   -3.4197    1.0173 C   0  0  0  0  0  0  0  0  0  0  0  0
    4.1762   -0.0641    0.0403 C   0  0  0  0  0  0  0  0  0  0  0  0
    4.4148    1.2892   -0.1959 C   0  0  0  0  0  0  0  0  0  0  0  0
    5.2445   -0.9385    0.2353 C   0  0  0  0  0  0  0  0  0  0  0  0
    5.7240    1.7688   -0.2371 C   0  0  0  0  0  0  0  0  0  0  0  0
    6.5538   -0.4589    0.1940 C   0  0  0  0  0  0  0  0  0  0  0  0
    6.7934    0.8947   -0.0421 C   0  0  0  0  0  0  0  0  0  0  0  0
    2.8589    2.8078    0.7677 C   0  0  0  0  0  0  0  0  0  0  0  0
    9.1165    0.4142    0.1252 C   0  0  0  0  0  0  0  0  0  0  0  0
   -8.3749    2.3172    1.6218 H   0  0  0  0  0  0  0  0  0  0  0  0
   -7.9622    3.7174    0.6321 H   0  0  0  0  0  0  0  0  0  0  0  0
   -5.6220    3.0101    0.4886 H   0  0  0  0  0  0  0  0  0  0  0  0
   -6.1021    3.0535    2.1869 H   0  0  0  0  0  0  0  0  0  0  0  0
   -9.0663    1.8899   -0.6956 H   0  0  0  0  0  0  0  0  0  0  0  0
   -7.4541    2.2912   -1.2925 H   0  0  0  0  0  0  0  0  0  0  0  0
   -4.8011    1.0059    1.6462 H   0  0  0  0  0  0  0  0  0  0  0  0
   -6.4202    0.5911    2.1966 H   0  0  0  0  0  0  0  0  0  0  0  0
   -8.1717   -0.0976    0.4938 H   0  0  0  0  0  0  0  0  0  0  0  0
   -7.7157   -0.1515   -1.2111 H   0  0  0  0  0  0  0  0  0  0  0  0
   -3.4534    0.5358   -0.0638 H   0  0  0  0  0  0  0  0  0  0  0  0
   -3.8429   -0.8565    0.9735 H   0  0  0  0  0  0  0  0  0  0  0  0
   -3.0084   -1.0207   -1.9723 H   0  0  0  0  0  0  0  0  0  0  0  0
   -3.3731   -2.3881   -0.9923 H   0  0  0  0  0  0  0  0  0  0  0  0
   -0.1460    0.4209   -2.7342 H   0  0  0  0  0  0  0  0  0  0  0  0
   -1.7639    0.7579   -2.1127 H   0  0  0  0  0  0  0  0  0  0  0  0
   -0.3774    1.5290   -1.3626 H   0  0  0  0  0  0  0  0  0  0  0  0
    2.9299   -2.3113    1.5130 H   0  0  0  0  0  0  0  0  0  0  0  0
   -2.4928   -4.0741    0.2024 H   0  0  0  0  0  0  0  0  0  0  0  0
   -3.0274   -2.8861    1.4335 H   0  0  0  0  0  0  0  0  0  0  0  0
   -1.7562   -4.0501    1.8105 H   0  0  0  0  0  0  0  0  0  0  0  0
    5.0925   -2.0008    0.4097 H   0  0  0  0  0  0  0  0  0  0  0  0
    5.9128    2.8234   -0.4219 H   0  0  0  0  0  0  0  0  0  0  0  0
    7.3372   -1.1925    0.3509 H   0  0  0  0  0  0  0  0  0  0  0  0
    1.9817    3.3870    0.4666 H   0  0  0  0  0  0  0  0  0  0  0  0
    2.5519    2.0767    1.5222 H   0  0  0  0  0  0  0  0  0  0  0  0
    3.6002    3.4921    1.1924 H   0  0  0  0  0  0  0  0  0  0  0  0
   10.0642    0.9587    0.0604 H   0  0  0  0  0  0  0  0  0  0  0  0
    9.0683   -0.0252    1.1274 H   0  0  0  0  0  0  0  0  0  0  0  0
    9.1311   -0.3474   -0.6619 H   0  0  0  0  0  0  0  0  0  0  0  0
  1 13  2  0  0  0  0
  2 25  1  0  0  0  0
  2 30  1  0  0  0  0
  3 29  1  0  0  0  0
  3 31  1  0  0  0  0
  4 11  1  0  0  0  0
  4 12  1  0  0  0  0
  4 13  1  0  0  0  0
  5  7  1  0  0  0  0
  5 17  1  0  0  0  0
  5 19  1  0  0  0  0
  6 18  2  0  0  0  0
  6 19  1  0  0  0  0
  7 22  2  0  0  0  0
  8  9  1  0  0  0  0
  8 10  1  0  0  0  0
  8 32  1  0  0  0  0
  8 33  1  0  0  0  0
  9 11  1  0  0  0  0
  9 34  1  0  0  0  0
  9 35  1  0  0  0  0
 10 12  1  0  0  0  0
 10 36  1  0  0  0  0
 10 37  1  0  0  0  0
 11 38  1  0  0  0  0
 11 39  1  0  0  0  0
 12 40  1  0  0  0  0
 12 41  1  0  0  0  0
 13 14  1  0  0  0  0
 14 15  1  0  0  0  0
 14 42  1  0  0  0  0
 14 43  1  0  0  0  0
 15 16  1  0  0  0  0
 15 44  1  0  0  0  0
 15 45  1  0  0  0  0
 16 17  2  0  0  0  0
 16 18  1  0  0  0  0
 17 20  1  0  0  0  0
 18 23  1  0  0  0  0
 19 21  2  0  0  0  0
 20 46  1  0  0  0  0
 20 47  1  0  0  0  0
 20 48  1  0  0  0  0
 21 22  1  0  0  0  0
 21 49  1  0  0  0  0
 22 24  1  0  0  0  0
 23 50  1  0  0  0  0
 23 51  1  0  0  0  0
 23 52  1  0  0  0  0
 24 25  2  0  0  0  0
 24 26  1  0  0  0  0
 25 27  1  0  0  0  0
 26 28  2  0  0  0  0
 26 53  1  0  0  0  0
 27 29  2  0  0  0  0
 27 54  1  0  0  0  0
 28 29  1  0  0  0  0
 28 55  1  0  0  0  0
 30 56  1  0  0  0  0
 30 57  1  0  0  0  0
 30 58  1  0  0  0  0
 31 59  1  0  0  0  0
 31 60  1  0  0  0  0
 31 61  1  0  0  0  0
M  END
> <PUBCHEM_COMPOUND_CID>
3244609

> <PUBCHEM_CONFORMER_RMSD>
1

> <PUBCHEM_CONFORMER_DIVERSEORDER>
1
16
65
36
9
18
53
24
2
56
45
37
22
20
64
39
5
27
58
12
49
19
44
63
6
43
30
7
32
34
54
31
10
46
15
14
33
29
52
42
62
59
35
38
50
28
3
11
41
61
17
21
4
48
13
25
40
57
26
55
51
47
8
23
60

> <PUBCHEM_MMFF94_PARTIAL_CHARGES>
32
1 -0.57
11 0.3
12 0.3
13 0.57
14 0.06
15 0.14
16 -0.12
17 -0.17
18 0.37
19 -0.03
2 -0.36
20 0.14
21 -0.15
22 0.23
23 0.06
24 0.05
25 0.08
26 -0.15
27 -0.15
28 -0.15
29 0.08
3 -0.36
30 0.28
31 0.28
4 -0.66
49 0.15
5 0.6
53 0.15
54 0.15
55 0.15
6 -0.58
7 -0.71

> <PUBCHEM_EFFECTIVE_ROTOR_COUNT>
8.2

> <PUBCHEM_PHARMACOPHORE_FEATURES>
9
1 1 acceptor
1 2 acceptor
1 3 acceptor
1 6 acceptor
1 7 acceptor
5 5 7 19 21 22 rings
6 24 25 26 27 28 29 rings
6 4 8 9 10 11 12 rings
6 5 6 16 17 18 19 rings

> <PUBCHEM_HEAVY_ATOM_COUNT>
31

> <PUBCHEM_ATOM_DEF_STEREO_COUNT>
0

> <PUBCHEM_ATOM_UDEF_STEREO_COUNT>
0

> <PUBCHEM_BOND_DEF_STEREO_COUNT>
0

> <PUBCHEM_BOND_UDEF_STEREO_COUNT>
0

> <PUBCHEM_ISOTOPIC_ATOM_COUNT>
0

> <PUBCHEM_COMPONENT_COUNT>
1

> <PUBCHEM_CACTVS_TAUTO_COUNT>
1

> <PUBCHEM_CONFORMER_ID>
0031824100000001

> <PUBCHEM_MMFF94_ENERGY>
92.0587

> <PUBCHEM_FEATURE_SELFOVERLAP>
45.809

> <PUBCHEM_SHAPE_FINGERPRINT>
10 15 17313099748337970279
10165383 225 18259701207660239038
10670039 82 16200437936277737385
10674148 151 18410289234127816768
10693767 8 10735877244811453237
10906281 52 18261965119071144566
11410812 94 15338848512564848682
11456790 92 18408318887473043328
11621639 183 16081918223571501213
13248334 5 18050005494007307563
13540713 5 16953115385176446991
13782708 43 7853582300587465350
14394314 77 18337112272839456649
14849402 71 18408323306514731853
15064981 194 18190471647338519430
15183329 4 16200436862050888979
15198563 99 14261083051332716859
15461852 350 17275096246443435661
15604295 49 17774430707471275752
1577012 14 18341608209363715787
15840311 113 18337678486840532725
16087824 20 18409167688838303204
16989713 51 16844713375096795167
20105231 36 16298385747926904522
21033648 29 18194952162507976488
21298829 104 18412545418506940512
21424621 283 18412263922166325691
21585482 111 18262798442112644773
21756936 100 18412545431814218751
21774942 28 17988932123755532392
21792938 703 10375282536979861965
21792961 116 15267065856584908199
22122407 14 18342184388227827089
22224240 67 17821728330264042155
23522609 53 17459771387322278428
23559900 14 18116142454573608846
23576562 1 15481804914106329537
24771293 8 18333450941614143559
2838139 119 18130505331574455557
3178227 256 17095525089278463332
335352 9 18261387897473960198
350125 39 18260823813427392620
3633792 109 17775012263317617454
397830 11 13984956176683775847
4066623 53 15841549674228077592
4073 2 17823417279161800706
4093350 32 18059857242998666934
4169191 19 18335696106115059725
445580 204 18272370867188347161
4461854 278 12035738591250736545
44802255 64 17203609307161305111
4516262 110 18337102368612587447
474113 269 15266790897832812478
5104073 3 17896029018148206234
5385378 56 18113615651787829570
5758199 1 18333731303951932147
5911458 16 18342741789231279105
5969126 39 11095891453664521427
6081469 158 15482678975138861660
6328613 192 18342175557832815433
636775 72 18342454893568381016

> <PUBCHEM_SHAPE_MULTIPOLES>
600.43
25.13
3.1
1.14
1.33
0.21
-0.11
-19.38
1.67
2.45
1.17
1.41
0.03
-1.57

> <PUBCHEM_SHAPE_SELFOVERLAP>
1284.873

> <PUBCHEM_SHAPE_VOLUME>
331.1

> <PUBCHEM_COORDINATE_TYPE>
2
5
10

$$$$
