135449221
  -OEChem-09082001423D

 31 33  0     0  0  0  0  0  0999 V2000
    1.0823   -1.9965    0.5805 O   0  0  0  0  0  0  0  0  0  0  0  0
    5.4504   -0.5920   -0.1995 O   0  0  0  0  0  0  0  0  0  0  0  0
    3.6007   -0.7337   -1.5083 O   0  0  0  0  0  0  0  0  0  0  0  0
   -0.2512   -0.0526    0.2336 N   0  0  0  0  0  0  0  0  0  0  0  0
   -2.3677    1.7390   -0.2221 N   0  0  0  0  0  0  0  0  0  0  0  0
   -0.0467    1.3092    0.1659 C   0  0  0  0  0  0  0  0  0  0  0  0
    1.9243    0.2857    0.5437 C   0  0  0  0  0  0  0  0  0  0  0  0
   -1.5444   -0.5886    0.0737 C   0  0  0  0  0  0  0  0  0  0  0  0
    0.9457   -0.6827    0.4638 C   0  0  0  0  0  0  0  0  0  0  0  0
    1.2998    1.5423    0.3561 C   0  0  0  0  0  0  0  0  0  0  0  0
   -1.1600    2.1976   -0.0701 C   0  0  0  0  0  0  0  0  0  0  0  0
   -2.5828    0.3397   -0.1531 C   0  0  0  0  0  0  0  0  0  0  0  0
    3.3641    0.0602    0.7814 C   0  0  0  0  0  0  0  0  0  0  0  0
   -1.7924   -1.9608    0.1352 C   0  0  0  0  0  0  0  0  0  0  0  0
   -0.9193    3.6803   -0.1408 C   0  0  0  0  0  0  0  0  0  0  0  0
   -3.8831   -0.1476   -0.3170 C   0  0  0  0  0  0  0  0  0  0  0  0
   -3.0983   -2.4207   -0.0317 C   0  0  0  0  0  0  0  0  0  0  0  0
   -4.1394   -1.5193   -0.2568 C   0  0  0  0  0  0  0  0  0  0  0  0
    4.1180   -0.4596   -0.4343 C   0  0  0  0  0  0  0  0  0  0  0  0
    1.7797    2.5116    0.3588 H   0  0  0  0  0  0  0  0  0  0  0  0
    3.5012   -0.6597    1.5966 H   0  0  0  0  0  0  0  0  0  0  0  0
    3.8403    1.0008    1.0839 H   0  0  0  0  0  0  0  0  0  0  0  0
   -1.0307   -2.7087    0.3062 H   0  0  0  0  0  0  0  0  0  0  0  0
   -0.2223    3.9030   -0.9538 H   0  0  0  0  0  0  0  0  0  0  0  0
   -0.4941    4.0309    0.8040 H   0  0  0  0  0  0  0  0  0  0  0  0
   -1.8572    4.2121   -0.3246 H   0  0  0  0  0  0  0  0  0  0  0  0
   -4.7076    0.5391   -0.4933 H   0  0  0  0  0  0  0  0  0  0  0  0
   -3.3073   -3.4859    0.0135 H   0  0  0  0  0  0  0  0  0  0  0  0
   -5.1539   -1.8858   -0.3858 H   0  0  0  0  0  0  0  0  0  0  0  0
    2.0232   -2.1912    0.7301 H   0  0  0  0  0  0  0  0  0  0  0  0
    5.9283   -0.9280   -0.9876 H   0  0  0  0  0  0  0  0  0  0  0  0
  1  9  1  0  0  0  0
  1 30  1  0  0  0  0
  2 19  1  0  0  0  0
  2 31  1  0  0  0  0
  3 19  2  0  0  0  0
  4  6  1  0  0  0  0
  4  8  1  0  0  0  0
  4  9  1  0  0  0  0
  5 11  2  0  0  0  0
  5 12  1  0  0  0  0
  6 10  2  0  0  0  0
  6 11  1  0  0  0  0
  7  9  2  0  0  0  0
  7 10  1  0  0  0  0
  7 13  1  0  0  0  0
  8 12  1  0  0  0  0
  8 14  2  0  0  0  0
 10 20  1  0  0  0  0
 11 15  1  0  0  0  0
 12 16  2  0  0  0  0
 13 19  1  0  0  0  0
 13 21  1  0  0  0  0
 13 22  1  0  0  0  0
 14 17  1  0  0  0  0
 14 23  1  0  0  0  0
 15 24  1  0  0  0  0
 15 25  1  0  0  0  0
 15 26  1  0  0  0  0
 16 18  1  0  0  0  0
 16 27  1  0  0  0  0
 17 18  2  0  0  0  0
 17 28  1  0  0  0  0
 18 29  1  0  0  0  0
M  END
> <PUBCHEM_COMPOUND_CID>
135449221

> <PUBCHEM_CONFORMER_RMSD>
0.6

> <PUBCHEM_CONFORMER_DIVERSEORDER>
1
2
6
3
4
5

> <PUBCHEM_MMFF94_PARTIAL_CHARGES>
26
1 -0.51
10 -0.15
11 0.47
12 0.18
13 0.24
14 -0.15
15 0.06
16 -0.15
17 -0.15
18 -0.15
19 0.66
2 -0.65
20 0.15
23 0.15
27 0.15
28 0.15
29 0.15
3 -0.57
30 0.45
31 0.5
4 0.33
5 -0.63
6 -0.24
7 -0.18
8 -0.02
9 -0.09

> <PUBCHEM_EFFECTIVE_ROTOR_COUNT>
2

> <PUBCHEM_PHARMACOPHORE_FEATURES>
9
1 1 donor
1 2 acceptor
1 3 acceptor
1 4 cation
1 5 acceptor
3 2 3 19 anion
5 4 6 7 9 10 rings
6 4 5 6 8 11 12 rings
6 8 12 14 16 17 18 rings

> <PUBCHEM_HEAVY_ATOM_COUNT>
19

> <PUBCHEM_ATOM_DEF_STEREO_COUNT>
0

> <PUBCHEM_ATOM_UDEF_STEREO_COUNT>
0

> <PUBCHEM_BOND_DEF_STEREO_COUNT>
0

> <PUBCHEM_BOND_UDEF_STEREO_COUNT>
0

> <PUBCHEM_ISOTOPIC_ATOM_COUNT>
0

> <PUBCHEM_COMPONENT_COUNT>
1

> <PUBCHEM_CACTVS_TAUTO_COUNT>
-1

> <PUBCHEM_CONFORMER_ID>
0812CA8500000001

> <PUBCHEM_MMFF94_ENERGY>
44.5004

> <PUBCHEM_FEATURE_SELFOVERLAP>
45.856

> <PUBCHEM_SHAPE_FINGERPRINT>
10319926 262 18124564572013773098
10411042 1 18265895946176096843
10616163 171 18410855430306536010
10967382 1 17904475560782557385
11458722 379 18408040714688138882
11543360 7 15285634451751305643
11578080 2 17098859946421269540
12011746 2 18411692184841438871
12032990 46 18339923822016436659
12173636 292 17977380538550990124
12236239 1 17603300441290525650
12553582 1 18336536188316206139
13140716 1 18337951302477671433
13288520 33 18413390934337582126
14115302 16 18041282166056056663
14790565 3 17764314942217592233
15196674 1 18338513166004521155
15536298 74 18269832188949408121
16752209 62 18262785286104700369
16945 1 18337381652290878505
17357779 13 18341879823237647773
17804303 29 18413387665761857969
19141452 34 17917713556258973799
20510252 161 18342732988194521344
20645477 70 17832128799903900591
20871999 31 18407477756128562588
20905425 154 18269273465376071150
21029758 27 18187933910625481865
21267235 1 18337676412129131659
21501502 16 18118960287388762346
21634736 98 18262519315865028204
22094290 60 18410295787519643464
221490 88 17974853079399299539
22182313 1 18194660760949812497
2297311 6 18411708694252710246
2334 1 18120649399210415185
23402539 116 18411975862498088287
23557571 272 18272655615157120436
23559900 14 18412819205771902656
2748010 2 18194387008376735873
2871803 45 18408876360784031119
3071541 250 18192436487781734077
3286 77 17131550656060014923
335352 9 18410571799804427613
352729 6 17617362992845871273
5104073 3 18341046401792169672
7364860 26 17907577283005716929
81228 2 18410017610930480777
8809292 202 18261954154082791827
8863177 126 17535197962498512475
9709674 26 17976816816004589123

> <PUBCHEM_SHAPE_MULTIPOLES>
363.44
7.75
2.93
0.8
6
2.26
-0.11
-4.47
-1.52
-2.09
-0.07
0.53
-0.11
0.34

> <PUBCHEM_SHAPE_SELFOVERLAP>
805.608

> <PUBCHEM_SHAPE_VOLUME>
193.7

> <PUBCHEM_COORDINATE_TYPE>
2
5
10

$$$$
