2059696
  -OEChem-09082001413D

 33 35  0     0  0  0  0  0  0999 V2000
   -3.1903    2.3738    0.4229 S   0  0  0  0  0  0  0  0  0  0  0  0
    3.0702   -0.4754    0.8135 S   0  0  0  0  0  0  0  0  0  0  0  0
    6.0387   -0.5395    1.4869 S   0  0  0  0  0  0  0  0  0  0  0  0
    0.2125   -1.2937   -0.7703 O   0  0  0  0  0  0  0  0  0  0  0  0
    0.2341    1.0165   -0.3036 N   0  0  0  0  0  0  0  0  0  0  0  0
   -1.9941    0.2208   -0.1725 N   0  0  0  0  0  0  0  0  0  0  0  0
   -1.5328    2.5029    0.2309 N   0  0  0  0  0  0  0  0  0  0  0  0
    5.1288   -0.0472   -0.8575 N   0  0  0  0  0  0  0  0  0  0  0  0
    6.5065    0.0169   -0.9700 N   0  0  0  0  0  0  0  0  0  0  0  0
   -4.4290   -0.0499    0.0911 C   0  0  0  0  0  0  0  0  0  0  0  0
   -3.1927    0.6935    0.0810 C   0  0  0  0  0  0  0  0  0  0  0  0
   -1.1052    1.2779   -0.0743 C   0  0  0  0  0  0  0  0  0  0  0  0
   -4.4083   -1.4376    0.2307 C   0  0  0  0  0  0  0  0  0  0  0  0
   -5.6456    0.6196   -0.0396 C   0  0  0  0  0  0  0  0  0  0  0  0
    2.2983   -0.1434   -0.7884 C   0  0  0  0  0  0  0  0  0  0  0  0
    0.7948   -0.2216   -0.6290 C   0  0  0  0  0  0  0  0  0  0  0  0
   -5.6041   -2.1558    0.2393 C   0  0  0  0  0  0  0  0  0  0  0  0
   -6.8414   -0.0984   -0.0309 C   0  0  0  0  0  0  0  0  0  0  0  0
   -6.8206   -1.4862    0.1086 C   0  0  0  0  0  0  0  0  0  0  0  0
    4.8160   -0.3242    0.3549 C   0  0  0  0  0  0  0  0  0  0  0  0
    7.1019   -0.2199    0.1794 C   0  0  0  0  0  0  0  0  0  0  0  0
    8.5624   -0.2290    0.3970 C   0  0  0  0  0  0  0  0  0  0  0  0
    2.6064   -0.8912   -1.5266 H   0  0  0  0  0  0  0  0  0  0  0  0
    2.5882    0.8455   -1.1587 H   0  0  0  0  0  0  0  0  0  0  0  0
   -3.4720   -1.9804    0.3363 H   0  0  0  0  0  0  0  0  0  0  0  0
   -5.7250    1.6942   -0.1743 H   0  0  0  0  0  0  0  0  0  0  0  0
    0.8449    1.8240   -0.2131 H   0  0  0  0  0  0  0  0  0  0  0  0
   -5.5881   -3.2363    0.3481 H   0  0  0  0  0  0  0  0  0  0  0  0
   -7.7891    0.4215   -0.1379 H   0  0  0  0  0  0  0  0  0  0  0  0
   -7.7515   -2.0454    0.1141 H   0  0  0  0  0  0  0  0  0  0  0  0
    8.8546    0.5255    1.1344 H   0  0  0  0  0  0  0  0  0  0  0  0
    8.9016   -1.2095    0.7465 H   0  0  0  0  0  0  0  0  0  0  0  0
    9.0911   -0.0062   -0.5354 H   0  0  0  0  0  0  0  0  0  0  0  0
  1  7  1  0  0  0  0
  1 11  1  0  0  0  0
  2 15  1  0  0  0  0
  2 20  1  0  0  0  0
  3 20  1  0  0  0  0
  3 21  1  0  0  0  0
  4 16  2  0  0  0  0
  5 12  1  0  0  0  0
  5 16  1  0  0  0  0
  5 27  1  0  0  0  0
  6 11  2  0  0  0  0
  6 12  1  0  0  0  0
  7 12  2  0  0  0  0
  8  9  1  0  0  0  0
  8 20  2  0  0  0  0
  9 21  2  0  0  0  0
 10 11  1  0  0  0  0
 10 13  2  0  0  0  0
 10 14  1  0  0  0  0
 13 17  1  0  0  0  0
 13 25  1  0  0  0  0
 14 18  2  0  0  0  0
 14 26  1  0  0  0  0
 15 16  1  0  0  0  0
 15 23  1  0  0  0  0
 15 24  1  0  0  0  0
 17 19  2  0  0  0  0
 17 28  1  0  0  0  0
 18 19  1  0  0  0  0
 18 29  1  0  0  0  0
 19 30  1  0  0  0  0
 21 22  1  0  0  0  0
 22 31  1  0  0  0  0
 22 32  1  0  0  0  0
 22 33  1  0  0  0  0
M  END
> <PUBCHEM_COMPOUND_CID>
2059696

> <PUBCHEM_CONFORMER_RMSD>
0.8

> <PUBCHEM_CONFORMER_DIVERSEORDER>
1
127
42
148
30
113
43
2
144
32
160
131
3
117
145
46
154
24
152
50
150
60
162
149
62
102
166
95
136
118
45
88
142
56
128
66
156
141
41
129
13
153
25
69
121
16
125
33
82
151
138
74
94
31
79
139
158
18
12
105
120
130
44
37
135
115
55
111
143
157
58
15
76
59
155
86
48
147
165
21
29
112
39
119
163
61
122
34
53
83
17
81
123
5
132
40
107
164
137
146
36
22
9
103
47
87
116
159
38
84
93
108
114
7
35
63
134
57
92
70
104
99
23
78
68
167
28
73
91
89
6
80
90
75
26
140
4
85
72
11
71
161
64
109
14
65
77
54
10
124
97
51
19
67
27
133
96
110
8
101
49
126
52
106
98
20
100

> <PUBCHEM_MMFF94_PARTIAL_CHARGES>
28
1 0.18
10 0.05
11 0.33
12 0.58
13 -0.15
14 -0.15
15 0.29
16 0.57
17 -0.15
18 -0.15
19 -0.15
2 -0.29
20 0.43
21 0.2
22 0.18
25 0.15
26 0.15
27 0.37
28 0.15
29 0.15
3 -0.08
30 0.15
4 -0.57
5 -0.49
6 -0.57
7 -0.51
8 -0.34
9 -0.34

> <PUBCHEM_EFFECTIVE_ROTOR_COUNT>
6

> <PUBCHEM_PHARMACOPHORE_FEATURES>
8
1 4 acceptor
1 5 donor
1 6 acceptor
1 8 acceptor
1 9 acceptor
5 1 6 7 11 12 rings
5 3 8 9 20 21 rings
6 10 13 14 17 18 19 rings

> <PUBCHEM_HEAVY_ATOM_COUNT>
22

> <PUBCHEM_ATOM_DEF_STEREO_COUNT>
0

> <PUBCHEM_ATOM_UDEF_STEREO_COUNT>
0

> <PUBCHEM_BOND_DEF_STEREO_COUNT>
0

> <PUBCHEM_BOND_UDEF_STEREO_COUNT>
0

> <PUBCHEM_ISOTOPIC_ATOM_COUNT>
0

> <PUBCHEM_COMPONENT_COUNT>
1

> <PUBCHEM_CACTVS_TAUTO_COUNT>
3

> <PUBCHEM_CONFORMER_ID>
001F6DB000000001

> <PUBCHEM_MMFF94_ENERGY>
40.1204

> <PUBCHEM_FEATURE_SELFOVERLAP>
42.099

> <PUBCHEM_SHAPE_FINGERPRINT>
10 15 18059568114426501770
10299344 5 18040152916222494026
106641 1 18412259563148787216
11315181 36 18334296470430205633
11524674 6 16988842800187513423
11646440 116 16845570916408402160
11724838 91 18113336410847590526
11963148 33 18411975879811008638
12166972 35 17822013137660790308
12236239 1 17894348869326985974
12730499 353 17275106103330297174
12838862 33 18341881980023399631
13073987 5 17274266033349082362
13288520 33 18409167723550715781
13533116 47 17603578600494488074
13631057 29 18409445886722474195
13668630 136 16008751303198688763
13914758 101 16370720396707986829
13947920 75 18113898277382830507
13964095 4 8646770002066367592
14123256 10 18333731316773290274
14150022 121 17203619151379438913
14251764 18 18040999549145422782
14251764 46 17989486321145372255
15183329 4 8935001481914080094
15338160 23 16414930638759790409
15419008 47 17775563135353543736
15716309 27 18341893000197395998
15927050 60 17550948526131299724
17834072 8 11818995179728120902
18006028 8 18342174479864758277
18335252 98 18202285797570026278
18608769 82 18202279230269689934
20621476 66 10303812094534446410
21150785 3 16370724842051625410
21267235 1 18411985775361819377
21315759 40 17968096396469468706
21365058 27 15195567909343205172
22224240 67 16917065568624004743
23035841 295 18334576849831384315
23198884 109 15140678077709555213
23402539 116 18334011696833949343
23559900 14 18262234559971595089
249057 25 17968389974379832948
3004659 81 18040432230904410193
3009799 131 13479132397787007406
328311 84 17846218822618126094
335352 9 18409162209292885917
34797466 226 17846786226363144516
4325135 7 18113899355815091030
5104073 3 17916028949383085338
5283156 175 18040998427394034995
5385378 56 8430051888161310893
5486654 2 18408886239166841459
59682541 35 18201434813887022138
5969126 39 16660355965725617300
67123 10 18408886244711483076
67856867 119 18187933923067727389
9953998 17 17561083618510662275

> <PUBCHEM_SHAPE_MULTIPOLES>
433.52
23.55
1.83
0.93
25.61
0.61
0.09
-7.91
2.56
-3.77
0.25
1.26
-0.08
-0.34

> <PUBCHEM_SHAPE_SELFOVERLAP>
889.831

> <PUBCHEM_SHAPE_VOLUME>
252.2

> <PUBCHEM_COORDINATE_TYPE>
2
5
10

$$$$
