3236929
  -OEChem-09082001423D

 47 49  0     0  0  0  0  0  0999 V2000
   -2.3414    0.1675    2.0571 O   0  0  0  0  0  0  0  0  0  0  0  0
   -3.7933    1.7907   -0.8187 O   0  0  0  0  0  0  0  0  0  0  0  0
    1.3429   -1.3793    0.5028 N   0  0  0  0  0  0  0  0  0  0  0  0
   -3.0932   -0.6770    0.0100 N   0  0  0  0  0  0  0  0  0  0  0  0
   -2.8441   -1.3245   -1.1994 N   0  0  0  0  0  0  0  0  0  0  0  0
   -6.0160    1.5112   -0.1995 N   0  0  0  0  0  0  0  0  0  0  0  0
    0.3942   -0.7840    1.3025 C   0  0  0  0  0  0  0  0  0  0  0  0
    0.7605   -1.8271   -0.6603 C   0  0  0  0  0  0  0  0  0  0  0  0
   -0.8035   -0.8586    0.6330 C   0  0  0  0  0  0  0  0  0  0  0  0
   -0.5714   -1.5074   -0.5866 C   0  0  0  0  0  0  0  0  0  0  0  0
    2.7463   -1.5122    0.8343 C   0  0  0  0  0  0  0  0  0  0  0  0
   -2.1203   -0.4024    0.9923 C   0  0  0  0  0  0  0  0  0  0  0  0
    0.7308   -0.2072    2.6208 C   0  0  0  0  0  0  0  0  0  0  0  0
    1.5316   -2.5116   -1.7181 C   0  0  0  0  0  0  0  0  0  0  0  0
    3.5390   -0.3268    0.3538 C   0  0  0  0  0  0  0  0  0  0  0  0
   -1.6463   -1.7260   -1.4962 C   0  0  0  0  0  0  0  0  0  0  0  0
   -4.4807   -0.2882    0.2024 C   0  0  0  0  0  0  0  0  0  0  0  0
    3.7032    0.7698    1.1887 C   0  0  0  0  0  0  0  0  0  0  0  0
    4.0953   -0.3462   -0.9178 C   0  0  0  0  0  0  0  0  0  0  0  0
    4.4380    1.8687    0.7434 C   0  0  0  0  0  0  0  0  0  0  0  0
    4.8302    0.7524   -1.3631 C   0  0  0  0  0  0  0  0  0  0  0  0
    5.0016    1.8600   -0.5325 C   0  0  0  0  0  0  0  0  0  0  0  0
   -4.6974    1.1058   -0.3469 C   0  0  0  0  0  0  0  0  0  0  0  0
    5.7866    3.0348   -1.0089 C   0  0  0  0  0  0  0  0  0  0  0  0
   -6.4925    2.8178   -0.5932 C   0  0  0  0  0  0  0  0  0  0  0  0
    3.1376   -2.4407    0.4075 H   0  0  0  0  0  0  0  0  0  0  0  0
    2.8619   -1.6517    1.9129 H   0  0  0  0  0  0  0  0  0  0  0  0
   -0.1428   -0.2234    3.2812 H   0  0  0  0  0  0  0  0  0  0  0  0
    1.5084   -0.7529    3.1586 H   0  0  0  0  0  0  0  0  0  0  0  0
    1.0299    0.8395    2.5155 H   0  0  0  0  0  0  0  0  0  0  0  0
    2.2912   -3.1956   -1.3338 H   0  0  0  0  0  0  0  0  0  0  0  0
    0.8635   -3.1231   -2.3356 H   0  0  0  0  0  0  0  0  0  0  0  0
    1.9976   -1.7843   -2.3882 H   0  0  0  0  0  0  0  0  0  0  0  0
   -1.4598   -2.2354   -2.4541 H   0  0  0  0  0  0  0  0  0  0  0  0
   -5.1373   -1.0007   -0.3087 H   0  0  0  0  0  0  0  0  0  0  0  0
   -4.7174   -0.2874    1.2718 H   0  0  0  0  0  0  0  0  0  0  0  0
    3.2996    0.7845    2.1949 H   0  0  0  0  0  0  0  0  0  0  0  0
    4.0032   -1.2103   -1.5662 H   0  0  0  0  0  0  0  0  0  0  0  0
    4.5686    2.7237    1.4016 H   0  0  0  0  0  0  0  0  0  0  0  0
    5.2692    0.7316   -2.3572 H   0  0  0  0  0  0  0  0  0  0  0  0
    5.1266    3.7490   -1.5111 H   0  0  0  0  0  0  0  0  0  0  0  0
    6.2836    3.5425   -0.1752 H   0  0  0  0  0  0  0  0  0  0  0  0
    6.5705    2.7284   -1.7099 H   0  0  0  0  0  0  0  0  0  0  0  0
   -6.6834    0.8783    0.2318 H   0  0  0  0  0  0  0  0  0  0  0  0
   -5.7762    3.3170   -1.2500 H   0  0  0  0  0  0  0  0  0  0  0  0
   -6.6415    3.4129    0.3111 H   0  0  0  0  0  0  0  0  0  0  0  0
   -7.4479    2.6935   -1.1084 H   0  0  0  0  0  0  0  0  0  0  0  0
  1 12  2  0  0  0  0
  2 23  2  0  0  0  0
  3  7  1  0  0  0  0
  3  8  1  0  0  0  0
  3 11  1  0  0  0  0
  4  5  1  0  0  0  0
  4 12  1  0  0  0  0
  4 17  1  0  0  0  0
  5 16  2  0  0  0  0
  6 23  1  0  0  0  0
  6 25  1  0  0  0  0
  6 44  1  0  0  0  0
  7  9  2  0  0  0  0
  7 13  1  0  0  0  0
  8 10  2  0  0  0  0
  8 14  1  0  0  0  0
  9 10  1  0  0  0  0
  9 12  1  0  0  0  0
 10 16  1  0  0  0  0
 11 15  1  0  0  0  0
 11 26  1  0  0  0  0
 11 27  1  0  0  0  0
 13 28  1  0  0  0  0
 13 29  1  0  0  0  0
 13 30  1  0  0  0  0
 14 31  1  0  0  0  0
 14 32  1  0  0  0  0
 14 33  1  0  0  0  0
 15 18  2  0  0  0  0
 15 19  1  0  0  0  0
 16 34  1  0  0  0  0
 17 23  1  0  0  0  0
 17 35  1  0  0  0  0
 17 36  1  0  0  0  0
 18 20  1  0  0  0  0
 18 37  1  0  0  0  0
 19 21  2  0  0  0  0
 19 38  1  0  0  0  0
 20 22  2  0  0  0  0
 20 39  1  0  0  0  0
 21 22  1  0  0  0  0
 21 40  1  0  0  0  0
 22 24  1  0  0  0  0
 24 41  1  0  0  0  0
 24 42  1  0  0  0  0
 24 43  1  0  0  0  0
 25 45  1  0  0  0  0
 25 46  1  0  0  0  0
 25 47  1  0  0  0  0
M  END
> <PUBCHEM_COMPOUND_CID>
3236929

> <PUBCHEM_CONFORMER_RMSD>
0.8

> <PUBCHEM_CONFORMER_DIVERSEORDER>
1
39
42
45
27
36
30
46
37
25
35
28
44
29
48
38
32
47
24
33
34
2
40
43
23
26
18
41
31
21
7
17
14
6
20
22
5
3
10
8
4
13
12
19
9
16
11
15

> <PUBCHEM_MMFF94_PARTIAL_CHARGES>
31
1 -0.57
10 -0.09
11 0.4
12 0.72
13 0.18
14 0.18
15 -0.14
16 0.48
17 0.36
18 -0.15
19 -0.15
2 -0.57
20 -0.15
21 -0.15
22 -0.14
23 0.57
24 0.14
25 0.3
3 0.05
34 0.06
37 0.15
38 0.15
39 0.15
4 -0.3
40 0.15
44 0.37
5 -0.51
6 -0.73
7 -0.33
8 -0.33
9 -0.09

> <PUBCHEM_EFFECTIVE_ROTOR_COUNT>
5

> <PUBCHEM_PHARMACOPHORE_FEATURES>
8
1 1 acceptor
1 2 acceptor
1 3 cation
1 5 acceptor
1 6 donor
5 3 7 8 9 10 rings
6 15 18 19 20 21 22 rings
6 4 5 9 10 12 16 rings

> <PUBCHEM_HEAVY_ATOM_COUNT>
25

> <PUBCHEM_ATOM_DEF_STEREO_COUNT>
0

> <PUBCHEM_ATOM_UDEF_STEREO_COUNT>
0

> <PUBCHEM_BOND_DEF_STEREO_COUNT>
0

> <PUBCHEM_BOND_UDEF_STEREO_COUNT>
0

> <PUBCHEM_ISOTOPIC_ATOM_COUNT>
0

> <PUBCHEM_COMPONENT_COUNT>
1

> <PUBCHEM_CACTVS_TAUTO_COUNT>
2

> <PUBCHEM_CONFORMER_ID>
0031644100000001

> <PUBCHEM_MMFF94_ENERGY>
59.1695

> <PUBCHEM_FEATURE_SELFOVERLAP>
40.7

> <PUBCHEM_SHAPE_FINGERPRINT>
10498660 4 18060419153200094178
11796584 16 10447936048770318191
12633257 1 15502657178118087404
12892183 10 12324228482542799494
12895836 83 18271805795552775468
14178342 30 13624352513202300319
14251751 18 10664101142797969529
14251764 38 18192432969913777589
14341114 328 17095240358442138204
14739800 52 17749945553750314969
14848178 5 10159702382447116428
15163728 17 18411990147559249812
15188451 53 8718835266546874453
15238133 3 17313672659096251812
15475509 35 9006757801123504085
15475509 8 15051746274288123299
15510800 12 12031782604300872628
15575132 122 18341617040117156885
16728300 4 8646503890230704569
17959699 21 18411980256291764930
1813 80 9439140766485558306
19784866 240 11095884882522047057
1979834 28 14634869695785299289
20567600 247 12103846747910439428
20715895 44 18272646831759063536
20775438 99 14476091506799595060
21033648 29 17313397746407088984
21304253 335 18260553311628198805
21344244 181 14045445787748932477
21475661 188 17967818270850330868
21637258 2 11312052123996182729
22122407 14 18187934958091587704
23227448 37 18340767156003744119
23379529 103 13685431630098134109
23559900 14 17631734863962501558
23569914 2 17465050065022562485
270888 7 18261675977926008876
2838139 119 18333723607164894116
316301 35 9294703403895620229
33382 64 10519695713753860877
3388396 114 16322315879502679412
3472631 163 18409166610468455885
34797466 226 18342185453358428823
392239 28 15792006844063912548
4058900 60 18058177129212444675
465052 167 11097862864858540226
5104073 3 17095239232865334480
56616090 13 18260547874558109464
57724786 102 17676766587307586540
58807428 26 14707209924240582946
59682541 52 15625938690964218389
633830 44 18186794790672470634
7237137 82 17917422194446694623
76465 3 10663827385877385826
7808743 9 18410285922201395167
7970288 3 10159160323711014828
960060 61 14907900504988976304

> <PUBCHEM_SHAPE_MULTIPOLES>
482.83
13.54
2.84
1.79
7.4
1.38
-0.68
15.44
4.14
-0.28
1.37
-0.63
-0.38
-0.08

> <PUBCHEM_SHAPE_SELFOVERLAP>
1040.491

> <PUBCHEM_SHAPE_VOLUME>
267.8

> <PUBCHEM_COORDINATE_TYPE>
2
5
10

$$$$
