659394
  -OEChem-09082001423D

 55 58  0     1  0  0  0  0  0999 V2000
    0.8436   -2.0040    2.4004 O   0  0  0  0  0  0  0  0  0  0  0  0
    2.0917   -0.9424    0.7575 N   0  0  0  0  0  0  0  0  0  0  0  0
   -0.0607    2.0696   -0.4343 N   0  0  0  0  0  0  0  0  0  0  0  0
   -2.0294    0.9825   -1.1662 N   0  0  0  0  0  0  0  0  0  0  0  0
   -1.7952   -0.8187    0.9364 N   0  0  0  0  0  0  0  0  0  0  0  0
   -0.6607    0.7040    4.1803 N   0  0  0  0  0  0  0  0  0  0  0  0
    3.0324   -2.0395    0.5207 C   0  0  0  0  0  0  0  0  0  0  0  0
    2.4832   -2.9873   -0.5540 C   0  0  0  0  0  0  0  0  0  0  0  0
    4.4012   -1.4850    0.1041 C   0  0  0  0  0  0  0  0  0  0  0  0
    2.4639   -2.3572   -1.9473 C   0  0  0  0  0  0  0  0  0  0  0  0
    4.3861   -0.8511   -1.2876 C   0  0  0  0  0  0  0  0  0  0  0  0
    3.8359   -1.8134   -2.3369 C   0  0  0  0  0  0  0  0  0  0  0  0
    0.7304    2.1376   -1.6684 C   0  0  0  0  0  0  0  0  0  0  0  0
   -0.3128    3.3455    0.2506 C   0  0  0  0  0  0  0  0  0  0  0  0
    2.0405    2.8860   -1.4270 C   0  0  0  0  0  0  0  0  0  0  0  0
    0.9975    4.0893    0.4989 C   0  0  0  0  0  0  0  0  0  0  0  0
    1.8000    4.2475   -0.7868 C   0  0  0  0  0  0  0  0  0  0  0  0
   -1.0164    1.0570   -0.2842 C   0  0  0  0  0  0  0  0  0  0  0  0
    1.0661   -1.0247    1.6905 C   0  0  0  0  0  0  0  0  0  0  0  0
    0.2161    0.2427    1.7366 C   0  0  1  0  0  0  0  0  0  0  0  0
   -0.9206    0.1680    0.7348 C   0  0  0  0  0  0  0  0  0  0  0  0
   -2.9339    0.0019   -0.9994 C   0  0  0  0  0  0  0  0  0  0  0  0
   -2.8153   -0.9103    0.0653 C   0  0  0  0  0  0  0  0  0  0  0  0
   -0.2758    0.4994    3.1046 C   0  0  0  0  0  0  0  0  0  0  0  0
   -4.0039   -0.1231   -1.8825 C   0  0  0  0  0  0  0  0  0  0  0  0
   -3.7711   -1.9137    0.2073 C   0  0  0  0  0  0  0  0  0  0  0  0
   -4.9548   -1.1307   -1.7314 C   0  0  0  0  0  0  0  0  0  0  0  0
   -4.8379   -2.0300   -0.6820 C   0  0  0  0  0  0  0  0  0  0  0  0
    3.1417   -2.5932    1.4607 H   0  0  0  0  0  0  0  0  0  0  0  0
    3.1075   -3.8895   -0.5838 H   0  0  0  0  0  0  0  0  0  0  0  0
    1.4693   -3.3136   -0.2927 H   0  0  0  0  0  0  0  0  0  0  0  0
    4.7455   -0.7427    0.8345 H   0  0  0  0  0  0  0  0  0  0  0  0
    5.1336   -2.3023    0.1123 H   0  0  0  0  0  0  0  0  0  0  0  0
    2.1424   -3.1034   -2.6827 H   0  0  0  0  0  0  0  0  0  0  0  0
    1.7264   -1.5459   -1.9769 H   0  0  0  0  0  0  0  0  0  0  0  0
    3.7864    0.0657   -1.2807 H   0  0  0  0  0  0  0  0  0  0  0  0
    5.4048   -0.5549   -1.5633 H   0  0  0  0  0  0  0  0  0  0  0  0
    4.5345   -2.6497   -2.4637 H   0  0  0  0  0  0  0  0  0  0  0  0
    3.7695   -1.3045   -3.3051 H   0  0  0  0  0  0  0  0  0  0  0  0
    2.1526   -0.1190    0.1666 H   0  0  0  0  0  0  0  0  0  0  0  0
    0.1470    2.6374   -2.4513 H   0  0  0  0  0  0  0  0  0  0  0  0
    0.9649    1.1272   -2.0254 H   0  0  0  0  0  0  0  0  0  0  0  0
   -0.8090    3.1802    1.2148 H   0  0  0  0  0  0  0  0  0  0  0  0
   -0.9864    3.9587   -0.3609 H   0  0  0  0  0  0  0  0  0  0  0  0
    2.5774    3.0074   -2.3743 H   0  0  0  0  0  0  0  0  0  0  0  0
    2.6827    2.2891   -0.7673 H   0  0  0  0  0  0  0  0  0  0  0  0
    1.5976    3.5387    1.2342 H   0  0  0  0  0  0  0  0  0  0  0  0
    0.7870    5.0745    0.9297 H   0  0  0  0  0  0  0  0  0  0  0  0
    2.7584    4.7320   -0.5704 H   0  0  0  0  0  0  0  0  0  0  0  0
    1.2585    4.8963   -1.4857 H   0  0  0  0  0  0  0  0  0  0  0  0
    0.8954    1.0727    1.5113 H   0  0  0  0  0  0  0  0  0  0  0  0
   -4.1078    0.5756   -2.7103 H   0  0  0  0  0  0  0  0  0  0  0  0
   -3.6914   -2.6260    1.0263 H   0  0  0  0  0  0  0  0  0  0  0  0
   -5.7811   -1.2101   -2.4311 H   0  0  0  0  0  0  0  0  0  0  0  0
   -5.5718   -2.8196   -0.5530 H   0  0  0  0  0  0  0  0  0  0  0  0
  1 19  2  0  0  0  0
  2  7  1  0  0  0  0
  2 19  1  0  0  0  0
  2 40  1  0  0  0  0
  3 13  1  0  0  0  0
  3 14  1  0  0  0  0
  3 18  1  0  0  0  0
  4 18  2  0  0  0  0
  4 22  1  0  0  0  0
  5 21  2  0  0  0  0
  5 23  1  0  0  0  0
  6 24  3  0  0  0  0
  7  8  1  0  0  0  0
  7  9  1  0  0  0  0
  7 29  1  0  0  0  0
  8 10  1  0  0  0  0
  8 30  1  0  0  0  0
  8 31  1  0  0  0  0
  9 11  1  0  0  0  0
  9 32  1  0  0  0  0
  9 33  1  0  0  0  0
 10 12  1  0  0  0  0
 10 34  1  0  0  0  0
 10 35  1  0  0  0  0
 11 12  1  0  0  0  0
 11 36  1  0  0  0  0
 11 37  1  0  0  0  0
 12 38  1  0  0  0  0
 12 39  1  0  0  0  0
 13 15  1  0  0  0  0
 13 41  1  0  0  0  0
 13 42  1  0  0  0  0
 14 16  1  0  0  0  0
 14 43  1  0  0  0  0
 14 44  1  0  0  0  0
 15 17  1  0  0  0  0
 15 45  1  0  0  0  0
 15 46  1  0  0  0  0
 16 17  1  0  0  0  0
 16 47  1  0  0  0  0
 16 48  1  0  0  0  0
 17 49  1  0  0  0  0
 17 50  1  0  0  0  0
 18 21  1  0  0  0  0
 19 20  1  0  0  0  0
 20 21  1  0  0  0  0
 20 24  1  0  0  0  0
 20 51  1  0  0  0  0
 22 23  1  0  0  0  0
 22 25  2  0  0  0  0
 23 26  2  0  0  0  0
 25 27  1  0  0  0  0
 25 52  1  0  0  0  0
 26 28  1  0  0  0  0
 26 53  1  0  0  0  0
 27 28  2  0  0  0  0
 27 54  1  0  0  0  0
 28 55  1  0  0  0  0
M  END
> <PUBCHEM_COMPOUND_CID>
659394

> <PUBCHEM_CONFORMER_RMSD>
0.8

> <PUBCHEM_CONFORMER_DIVERSEORDER>
1
47
120
62
146
34
93
77
135
117
112
51
32
41
55
155
61
150
107
137
142
139
74
24
86
140
89
143
95
82
148
5
17
124
46
110
6
69
85
40
66
11
111
97
100
99
81
63
134
127
60
94
96
35
10
153
76
141
151
84
116
149
75
36
128
13
70
33
37
58
115
21
38
130
156
71
59
126
64
147
79
138
8
145
121
154
68
113
49
65
42
129
91
27
53
87
2
123
78
57
43
144
48
118
44
133
50
22
108
90
54
132
136
52
12
29
83
25
114
30
103
14
80
131
88
101
19
98
16
67
26
45
109
28
18
102
9
105
125
122
23
119
20
104
152
4
15
73
106
39
92
7
72
3
56
31

> <PUBCHEM_MMFF94_PARTIAL_CHARGES>
25
1 -0.57
13 0.37
14 0.37
18 0.41
19 0.57
2 -0.73
20 0.4
21 0.17
22 0.31
23 0.31
24 0.36
25 -0.15
26 -0.15
27 -0.15
28 -0.15
3 -0.84
4 -0.62
40 0.37
5 -0.62
52 0.15
53 0.15
54 0.15
55 0.15
6 -0.56
7 0.3

> <PUBCHEM_EFFECTIVE_ROTOR_COUNT>
7.4

> <PUBCHEM_PHARMACOPHORE_FEATURES>
9
1 1 acceptor
1 2 donor
1 5 acceptor
1 6 acceptor
3 3 4 18 cation
6 22 23 25 26 27 28 rings
6 3 13 14 15 16 17 rings
6 4 5 18 21 22 23 rings
6 7 8 9 10 11 12 rings

> <PUBCHEM_HEAVY_ATOM_COUNT>
28

> <PUBCHEM_ATOM_DEF_STEREO_COUNT>
0

> <PUBCHEM_ATOM_UDEF_STEREO_COUNT>
1

> <PUBCHEM_BOND_DEF_STEREO_COUNT>
0

> <PUBCHEM_BOND_UDEF_STEREO_COUNT>
0

> <PUBCHEM_ISOTOPIC_ATOM_COUNT>
0

> <PUBCHEM_COMPONENT_COUNT>
1

> <PUBCHEM_CACTVS_TAUTO_COUNT>
5

> <PUBCHEM_CONFORMER_ID>
000A0FC200000001

> <PUBCHEM_MMFF94_ENERGY>
66.5356

> <PUBCHEM_FEATURE_SELFOVERLAP>
45.71

> <PUBCHEM_SHAPE_FINGERPRINT>
11488393 25 18119253015158975539
12156800 1 13988265591025167676
12788726 201 17975406915363462325
13149001 5 17969233385064472194
133893 2 18119557515492237460
13681431 1 18337378413938375645
13911987 19 18116457967081900910
14251757 17 18040998483255016383
14790565 3 17543906811227784589
15475509 8 18126279745544340949
15664445 248 18410282597532769562
1813 80 18272654528171750463
19319366 153 16662893501719935513
20028762 73 16750443678550402339
20775438 99 17830442135502112351
23419403 2 14642952252784310952
23557571 272 18049418389061588306
23559900 14 18269816749343780303
238 59 18118134790601037068
26353 1 18411981317185720868
3298306 158 17902235838448810732
376196 1 17465364710120895749
38695281 34 17907846650126520924
4280585 95 18335404764981460218
46194498 28 18265604563089512983
463206 1 18267873967536132390
5081480 168 18334293172043002549
57527585 103 16591438491551269706
5895379 119 13410398558781175247
6669772 16 17898286362537608758
6823239 73 18262219119521701555
84936 31 17984960833832151961

> <PUBCHEM_SHAPE_MULTIPOLES>
545.45
7.82
4.54
2.9
4.49
5.01
-2.74
-7.84
5.48
-3.95
1.42
-0.13
-0.07
-0.2

> <PUBCHEM_SHAPE_SELFOVERLAP>
1164.302

> <PUBCHEM_SHAPE_VOLUME>
298.3

> <PUBCHEM_COORDINATE_TYPE>
2
5
10

$$$$
