2919698
  -OEChem-09082001413D

 54 57  0     0  0  0  0  0  0999 V2000
   -4.5374   -0.9793    0.8038 S   0  0  0  0  0  0  0  0  0  0  0  0
    6.9520    2.8624   -0.3609 F   0  0  0  0  0  0  0  0  0  0  0  0
   -8.0296    3.2295    0.2793 O   0  0  0  0  0  0  0  0  0  0  0  0
   -7.7472   -1.6910    0.2009 O   0  0  0  0  0  0  0  0  0  0  0  0
    4.9900    1.3763   -1.1585 O   0  0  0  0  0  0  0  0  0  0  0  0
   -7.3822    0.5477   -0.2943 N   0  0  0  0  0  0  0  0  0  0  0  0
   -1.8254   -0.9036    0.5544 N   0  0  0  0  0  0  0  0  0  0  0  0
   -2.8083   -2.2065   -0.9030 N   0  0  0  0  0  0  0  0  0  0  0  0
   -1.4469   -2.2503   -1.1281 N   0  0  0  0  0  0  0  0  0  0  0  0
    4.6442   -0.4801    0.2423 N   0  0  0  0  0  0  0  0  0  0  0  0
   -8.7641    0.9414   -0.0202 C   0  0  0  0  0  0  0  0  0  0  0  0
   -6.5285    1.6402   -0.7729 C   0  0  0  0  0  0  0  0  0  0  0  0
   -8.7974    2.1767    0.8683 C   0  0  0  0  0  0  0  0  0  0  0  0
   -6.6574    2.8503    0.1438 C   0  0  0  0  0  0  0  0  0  0  0  0
   -7.0079   -0.7913   -0.2058 C   0  0  0  0  0  0  0  0  0  0  0  0
   -5.6028   -1.1268   -0.6378 C   0  0  0  0  0  0  0  0  0  0  0  0
   -2.9751   -1.4054    0.0907 C   0  0  0  0  0  0  0  0  0  0  0  0
   -0.8753   -1.4631   -0.2450 C   0  0  0  0  0  0  0  0  0  0  0  0
    0.5397   -1.2103   -0.1195 C   0  0  0  0  0  0  0  0  0  0  0  0
   -1.6017    0.0189    1.6448 C   0  0  0  0  0  0  0  0  0  0  0  0
    1.1254   -0.1587   -0.8239 C   0  0  0  0  0  0  0  0  0  0  0  0
    1.3215   -2.0189    0.7053 C   0  0  0  0  0  0  0  0  0  0  0  0
    3.2758   -0.7239    0.1214 C   0  0  0  0  0  0  0  0  0  0  0  0
    2.4936    0.0844   -0.7035 C   0  0  0  0  0  0  0  0  0  0  0  0
    2.6898   -1.7755    0.8258 C   0  0  0  0  0  0  0  0  0  0  0  0
    5.4005    0.5208   -0.3817 C   0  0  0  0  0  0  0  0  0  0  0  0
    6.8545    0.5066   -0.0730 C   0  0  0  0  0  0  0  0  0  0  0  0
    7.5519    1.6963   -0.0811 C   0  0  0  0  0  0  0  0  0  0  0  0
    7.4585   -0.6999    0.2129 C   0  0  0  0  0  0  0  0  0  0  0  0
    8.9159    1.6787    0.2097 C   0  0  0  0  0  0  0  0  0  0  0  0
    8.8227   -0.7174    0.5038 C   0  0  0  0  0  0  0  0  0  0  0  0
    9.5514    0.4719    0.5022 C   0  0  0  0  0  0  0  0  0  0  0  0
   -9.2223    1.1619   -0.9915 H   0  0  0  0  0  0  0  0  0  0  0  0
   -9.3247    0.1227    0.4409 H   0  0  0  0  0  0  0  0  0  0  0  0
   -5.4767    1.3660   -0.8422 H   0  0  0  0  0  0  0  0  0  0  0  0
   -6.8825    1.8895   -1.7801 H   0  0  0  0  0  0  0  0  0  0  0  0
   -9.8263    2.5323    0.9801 H   0  0  0  0  0  0  0  0  0  0  0  0
   -8.4059    1.9603    1.8694 H   0  0  0  0  0  0  0  0  0  0  0  0
   -6.2398    2.6449    1.1367 H   0  0  0  0  0  0  0  0  0  0  0  0
   -6.1141    3.7013   -0.2785 H   0  0  0  0  0  0  0  0  0  0  0  0
   -5.6053   -2.1694   -0.9774 H   0  0  0  0  0  0  0  0  0  0  0  0
   -5.2642   -0.5307   -1.4876 H   0  0  0  0  0  0  0  0  0  0  0  0
   -1.9828   -0.4349    2.5635 H   0  0  0  0  0  0  0  0  0  0  0  0
   -2.1341    0.9480    1.4247 H   0  0  0  0  0  0  0  0  0  0  0  0
   -0.5394    0.2357    1.7666 H   0  0  0  0  0  0  0  0  0  0  0  0
    0.5278    0.4796   -1.4706 H   0  0  0  0  0  0  0  0  0  0  0  0
    0.8794   -2.8426    1.2607 H   0  0  0  0  0  0  0  0  0  0  0  0
    2.8721    0.9164   -1.2802 H   0  0  0  0  0  0  0  0  0  0  0  0
    3.2868   -2.4137    1.4723 H   0  0  0  0  0  0  0  0  0  0  0  0
    5.1166   -1.0982    0.8965 H   0  0  0  0  0  0  0  0  0  0  0  0
    6.9352   -1.6502    0.1877 H   0  0  0  0  0  0  0  0  0  0  0  0
    9.4833    2.6048    0.2079 H   0  0  0  0  0  0  0  0  0  0  0  0
    9.3197   -1.6580    0.7231 H   0  0  0  0  0  0  0  0  0  0  0  0
   10.6139    0.4581    0.7266 H   0  0  0  0  0  0  0  0  0  0  0  0
  1 16  1  0  0  0  0
  1 17  1  0  0  0  0
  2 28  1  0  0  0  0
  3 13  1  0  0  0  0
  3 14  1  0  0  0  0
  4 15  2  0  0  0  0
  5 26  2  0  0  0  0
  6 11  1  0  0  0  0
  6 12  1  0  0  0  0
  6 15  1  0  0  0  0
  7 17  1  0  0  0  0
  7 18  1  0  0  0  0
  7 20  1  0  0  0  0
  8  9  1  0  0  0  0
  8 17  2  0  0  0  0
  9 18  2  0  0  0  0
 10 23  1  0  0  0  0
 10 26  1  0  0  0  0
 10 50  1  0  0  0  0
 11 13  1  0  0  0  0
 11 33  1  0  0  0  0
 11 34  1  0  0  0  0
 12 14  1  0  0  0  0
 12 35  1  0  0  0  0
 12 36  1  0  0  0  0
 13 37  1  0  0  0  0
 13 38  1  0  0  0  0
 14 39  1  0  0  0  0
 14 40  1  0  0  0  0
 15 16  1  0  0  0  0
 16 41  1  0  0  0  0
 16 42  1  0  0  0  0
 18 19  1  0  0  0  0
 19 21  2  0  0  0  0
 19 22  1  0  0  0  0
 20 43  1  0  0  0  0
 20 44  1  0  0  0  0
 20 45  1  0  0  0  0
 21 24  1  0  0  0  0
 21 46  1  0  0  0  0
 22 25  2  0  0  0  0
 22 47  1  0  0  0  0
 23 24  2  0  0  0  0
 23 25  1  0  0  0  0
 24 48  1  0  0  0  0
 25 49  1  0  0  0  0
 26 27  1  0  0  0  0
 27 28  1  0  0  0  0
 27 29  2  0  0  0  0
 28 30  2  0  0  0  0
 29 31  1  0  0  0  0
 29 51  1  0  0  0  0
 30 32  1  0  0  0  0
 30 52  1  0  0  0  0
 31 32  2  0  0  0  0
 31 53  1  0  0  0  0
 32 54  1  0  0  0  0
M  END
> <PUBCHEM_COMPOUND_CID>
2919698

> <PUBCHEM_CONFORMER_RMSD>
1

> <PUBCHEM_CONFORMER_DIVERSEORDER>
2
17
118
97
66
51
42
149
156
55
70
73
48
164
78
140
157
57
107
161
114
102
100
120
86
158
139
43
3
68
14
165
126
150
117
105
142
38
16
33
112
113
32
34
7
28
147
137
145
59
85
144
124
99
132
90
63
128
141
130
162
159
148
155
91
87
45
96
166
6
106
69
31
44
81
64
110
115
76
83
121
22
39
41
160
103
65
98
40
123
72
116
5
146
46
95
71
52
15
119
163
75
50
74
143
129
58
88
79
21
77
152
122
109
36
25
1
61
92
24
60
136
84
18
127
35
133
89
54
11
151
20
23
108
94
37
62
135
53
4
154
131
138
101
13
56
104
10
67
47
125
49
26
12
30
27
82
93
8
111
153
9
19
134
29
80

> <PUBCHEM_MMFF94_PARTIAL_CHARGES>
41
1 -0.29
10 -0.55
11 0.3
12 0.3
13 0.28
14 0.28
15 0.57
16 0.29
17 0.24
18 0.13
19 0.05
2 -0.19
20 0.26
21 -0.15
22 -0.15
23 0.12
24 -0.15
25 -0.15
26 0.54
27 0.09
28 0.19
29 -0.15
3 -0.56
30 -0.15
31 -0.15
32 -0.15
4 -0.57
46 0.15
47 0.15
48 0.15
49 0.15
5 -0.57
50 0.37
51 0.15
52 0.15
53 0.15
54 0.15
6 -0.66
7 0.05
8 -0.34
9 -0.34

> <PUBCHEM_EFFECTIVE_ROTOR_COUNT>
9.2

> <PUBCHEM_PHARMACOPHORE_FEATURES>
10
1 10 donor
1 3 acceptor
1 4 acceptor
1 5 acceptor
3 7 8 17 cation
3 7 9 18 cation
5 7 8 9 17 18 rings
6 19 21 22 23 24 25 rings
6 27 28 29 30 31 32 rings
6 3 6 11 12 13 14 rings

> <PUBCHEM_HEAVY_ATOM_COUNT>
32

> <PUBCHEM_ATOM_DEF_STEREO_COUNT>
0

> <PUBCHEM_ATOM_UDEF_STEREO_COUNT>
0

> <PUBCHEM_BOND_DEF_STEREO_COUNT>
0

> <PUBCHEM_BOND_UDEF_STEREO_COUNT>
0

> <PUBCHEM_ISOTOPIC_ATOM_COUNT>
0

> <PUBCHEM_COMPONENT_COUNT>
1

> <PUBCHEM_CACTVS_TAUTO_COUNT>
3

> <PUBCHEM_CONFORMER_ID>
002C8D1200000002

> <PUBCHEM_MMFF94_ENERGY>
86.7143

> <PUBCHEM_FEATURE_SELFOVERLAP>
53.331

> <PUBCHEM_SHAPE_FINGERPRINT>
10076449 9 13830133892747553643
10190206 1 17203051794942091169
10533779 47 15864069819542875768
10625338 131 18412257333291095368
11061554 47 18409160035544172412
11135609 99 8286189553257141259
11181472 205 18341051813957558946
11386260 185 15051440648504871850
11456790 92 18187362169064196168
11578821 258 18271806882243799144
12082328 90 18411980274263425455
125118 31 18334860554344767940
12539745 222 12901541330930980743
12539765 74 18413395336859117366
12664476 115 18059857282006111859
13248334 5 18123190091505562959
13726171 33 18123191204903789449
15198563 99 14476964425143779715
15461852 350 17846212302293658343
15604295 49 18270394009685841392
16728433 281 17416977123554590393
16989713 51 17345179186513339511
1818759 1 10953454120532481600
20105231 36 12540692605468715504
20505436 4 18410848867375695707
21150785 3 12895077327614202686
21267235 1 8718830885786032854
21298829 104 18407761430497949789
21585482 111 18261669264992566685
21781055 127 16226054327911597934
21927370 108 14418128496109149966
24771293 8 18259985972639940719
249057 3 16056876974633722538
306946 40 16917055691069448096
3633792 109 18342461405129009586
3711267 37 18340497724121190833
437795 150 13398331522294331109
437795 83 17632300034798747241
44280117 145 18270398421218414031
44802255 64 17703789220222401055
54039377 194 9079111163979019241
57303763 39 11819293156665846872
5937810 71 17703517597800498945
59567204 34 18341894070404200361
6201320 215 18339075982862286489
6201320 82 18129115433267206553
636775 72 18410013222291808705
636775 8 8358260358356034720
6698420 124 18113617928389333650
9896288 288 11891871888886922911
9962374 69 10447922872022033938

> <PUBCHEM_SHAPE_MULTIPOLES>
612.61
35.16
2.78
0.98
7.37
1.53
0.08
24.62
2.78
-3.82
-0.03
-0.35
-0.09
-1.33

> <PUBCHEM_SHAPE_SELFOVERLAP>
1310.694

> <PUBCHEM_SHAPE_VOLUME>
343

> <PUBCHEM_COORDINATE_TYPE>
2
5
10

$$$$
