814761
  -OEChem-09082001313D

 33 34  0     0  0  0  0  0  0999 V2000
   -3.1298    1.9154   -0.5407 O   0  0  0  0  0  0  0  0  0  0  0  0
   -4.8065   -0.1284    0.3161 O   0  0  0  0  0  0  0  0  0  0  0  0
    1.1402   -2.1351   -0.2490 O   0  0  0  0  0  0  0  0  0  0  0  0
    1.5308    0.1507    0.1087 N   0  0  0  0  0  0  0  0  0  0  0  0
    5.7079    0.4215   -0.0807 N   0  0  0  0  0  0  0  0  0  0  0  0
   -0.7114   -0.7602    0.0545 C   0  0  0  0  0  0  0  0  0  0  0  0
   -2.6204    0.6979   -0.2033 C   0  0  0  0  0  0  0  0  0  0  0  0
   -1.2452    0.4817   -0.2896 C   0  0  0  0  0  0  0  0  0  0  0  0
   -3.4619   -0.3277    0.2275 C   0  0  0  0  0  0  0  0  0  0  0  0
   -1.5529   -1.7859    0.4851 C   0  0  0  0  0  0  0  0  0  0  0  0
   -2.9281   -1.5696    0.5717 C   0  0  0  0  0  0  0  0  0  0  0  0
    0.7226   -0.9856   -0.0348 C   0  0  0  0  0  0  0  0  0  0  0  0
    2.9430    0.2423    0.0451 C   0  0  0  0  0  0  0  0  0  0  0  0
    3.6848   -0.8979   -0.1857 C   0  0  0  0  0  0  0  0  0  0  0  0
    3.5495    1.4698    0.2146 C   0  0  0  0  0  0  0  0  0  0  0  0
    5.0620   -0.7555   -0.2395 C   0  0  0  0  0  0  0  0  0  0  0  0
    4.9327    1.5064    0.1428 C   0  0  0  0  0  0  0  0  0  0  0  0
   -3.2338    2.8855    0.4996 C   0  0  0  0  0  0  0  0  0  0  0  0
   -5.5835   -0.4253   -0.8425 C   0  0  0  0  0  0  0  0  0  0  0  0
   -0.6293    1.2937   -0.6662 H   0  0  0  0  0  0  0  0  0  0  0  0
   -1.1571   -2.7593    0.7632 H   0  0  0  0  0  0  0  0  0  0  0  0
   -3.5777   -2.3725    0.9098 H   0  0  0  0  0  0  0  0  0  0  0  0
    1.0803    1.0359    0.3245 H   0  0  0  0  0  0  0  0  0  0  0  0
    3.2932   -1.8922   -0.3286 H   0  0  0  0  0  0  0  0  0  0  0  0
    2.9835    2.3765    0.3964 H   0  0  0  0  0  0  0  0  0  0  0  0
    5.7035   -1.6124   -0.4177 H   0  0  0  0  0  0  0  0  0  0  0  0
    5.4708    2.4404    0.2672 H   0  0  0  0  0  0  0  0  0  0  0  0
   -2.2447    3.1191    0.9061 H   0  0  0  0  0  0  0  0  0  0  0  0
   -3.8929    2.5270    1.2966 H   0  0  0  0  0  0  0  0  0  0  0  0
   -3.6621    3.7978    0.0756 H   0  0  0  0  0  0  0  0  0  0  0  0
   -5.4930   -1.4844   -1.1037 H   0  0  0  0  0  0  0  0  0  0  0  0
   -5.2711    0.1981   -1.6863 H   0  0  0  0  0  0  0  0  0  0  0  0
   -6.6312   -0.2089   -0.6170 H   0  0  0  0  0  0  0  0  0  0  0  0
  1  7  1  0  0  0  0
  1 18  1  0  0  0  0
  2  9  1  0  0  0  0
  2 19  1  0  0  0  0
  3 12  2  0  0  0  0
  4 12  1  0  0  0  0
  4 13  1  0  0  0  0
  4 23  1  0  0  0  0
  5 16  2  0  0  0  0
  5 17  1  0  0  0  0
  6  8  2  0  0  0  0
  6 10  1  0  0  0  0
  6 12  1  0  0  0  0
  7  8  1  0  0  0  0
  7  9  2  0  0  0  0
  8 20  1  0  0  0  0
  9 11  1  0  0  0  0
 10 11  2  0  0  0  0
 10 21  1  0  0  0  0
 11 22  1  0  0  0  0
 13 14  2  0  0  0  0
 13 15  1  0  0  0  0
 14 16  1  0  0  0  0
 14 24  1  0  0  0  0
 15 17  2  0  0  0  0
 15 25  1  0  0  0  0
 16 26  1  0  0  0  0
 17 27  1  0  0  0  0
 18 28  1  0  0  0  0
 18 29  1  0  0  0  0
 18 30  1  0  0  0  0
 19 31  1  0  0  0  0
 19 32  1  0  0  0  0
 19 33  1  0  0  0  0
M  END
> <PUBCHEM_COMPOUND_CID>
814761

> <PUBCHEM_CONFORMER_RMSD>
0.6

> <PUBCHEM_CONFORMER_DIVERSEORDER>
3
23
17
20
27
13
10
19
24
11
25
2
6
22
26
5
4
8
18
15
16
14
7
12
21
1
9

> <PUBCHEM_MMFF94_PARTIAL_CHARGES>
27
1 -0.36
10 -0.15
11 -0.15
12 0.54
13 0.12
14 -0.15
15 -0.15
16 0.16
17 0.16
18 0.28
19 0.28
2 -0.36
20 0.15
21 0.15
22 0.15
23 0.37
24 0.15
25 0.15
26 0.15
27 0.15
3 -0.57
4 -0.55
5 -0.62
6 0.09
7 0.08
8 -0.15
9 0.08

> <PUBCHEM_EFFECTIVE_ROTOR_COUNT>
5

> <PUBCHEM_PHARMACOPHORE_FEATURES>
7
1 1 acceptor
1 2 acceptor
1 3 acceptor
1 4 donor
1 5 acceptor
6 5 13 14 15 16 17 rings
6 6 7 8 9 10 11 rings

> <PUBCHEM_HEAVY_ATOM_COUNT>
19

> <PUBCHEM_ATOM_DEF_STEREO_COUNT>
0

> <PUBCHEM_ATOM_UDEF_STEREO_COUNT>
0

> <PUBCHEM_BOND_DEF_STEREO_COUNT>
0

> <PUBCHEM_BOND_UDEF_STEREO_COUNT>
0

> <PUBCHEM_ISOTOPIC_ATOM_COUNT>
0

> <PUBCHEM_COMPONENT_COUNT>
1

> <PUBCHEM_CACTVS_TAUTO_COUNT>
3

> <PUBCHEM_CONFORMER_ID>
000C6EA900000003

> <PUBCHEM_MMFF94_ENERGY>
81.4131

> <PUBCHEM_FEATURE_SELFOVERLAP>
35.527

> <PUBCHEM_SHAPE_FINGERPRINT>
10366900 7 18341888619478395499
10608611 8 18410575058914374154
10646746 165 18409451375738157532
10670039 82 18261126149287568628
11315181 36 17967819366330397448
12107183 9 17830447276814284354
12236239 1 14620802599864780210
12390115 104 18198638652675517185
12670546 56 18040991813376624858
12916748 109 18409452492144811426
13081056 2 18412263943382406732
13533116 47 17531235124237119226
14251764 18 18260544512126100794
14341114 176 18333737935280989512
15042514 8 18190187973887569091
15196674 1 18410856521296651560
15537594 2 11743843564170082261
17844677 252 18412271627374486792
18186145 218 18130801061679470978
200 152 17775566450983554859
20281475 54 9223219763095059882
20300324 65 18344143692273353293
20510252 161 18412266095546209233
20645477 56 18408042930880441162
20645477 70 17560810883877016438
21065198 57 18409450306407598706
21236236 1 18413108330117100337
21267235 1 18408895031022723578
21279426 13 18196376914475911462
21315764 268 18335693966767996668
21652331 79 18409165527973283400
221357 26 18201717357799250048
23402539 116 18334570291564354303
23557571 272 18343589520616179525
23559900 14 18337668723530698664
245318 6 16448707910964971052
351380 180 18411417340734998724
3545911 37 18409731781268011422
4214541 1 18409167697232467744
5104073 3 18261957336595244114
5281201 14 18130515141258550500
542803 24 17561369486764026642
54446538 1 18409728465548367400
59755656 215 18335704918945112126
77779 3 18408605877145387762
90127 26 18336839619265707354
9709674 26 18340775844643917318

> <PUBCHEM_SHAPE_MULTIPOLES>
363.44
12.47
2.2
0.72
6.22
1.01
-0.01
2.52
-1.05
-1.21
0.27
-0.38
-0.01
0.28

> <PUBCHEM_SHAPE_SELFOVERLAP>
775.674

> <PUBCHEM_SHAPE_VOLUME>
200.8

> <PUBCHEM_COORDINATE_TYPE>
2
5
10

$$$$
