3000015
  -OEChem-09082001283D

 25 27  0     1  0  0  0  0  0999 V2000
   -5.8732    0.0649    0.6545 Cl  0  0  0  0  0  0  0  0  0  0  0  0
    1.7309   -1.5093   -0.0863 S   0  0  0  0  0  0  0  0  0  0  0  0
    4.7542    0.8086    0.4156 O   0  0  0  0  0  0  0  0  0  0  0  0
   -0.2537    0.2110   -0.7912 O   0  0  0  0  0  0  0  0  0  0  0  0
    4.7313   -1.1297   -0.8049 O   0  0  0  0  0  0  0  0  0  0  0  0
   -0.8867   -1.5096    0.5414 N   0  0  0  0  0  0  0  0  0  0  0  0
    2.6523    0.0294   -0.2675 C   0  0  1  0  0  0  0  0  0  0  0  0
    2.4826    0.9518    0.9195 C   0  0  0  0  0  0  0  0  0  0  0  0
    3.7708    1.7368    0.8878 C   0  0  0  0  0  0  0  0  0  0  0  0
    4.1364   -0.2111   -0.2629 C   0  0  0  0  0  0  0  0  0  0  0  0
    0.0921   -0.9125   -0.1024 C   0  0  0  0  0  0  0  0  0  0  0  0
   -1.9766   -0.7215    0.2611 C   0  0  0  0  0  0  0  0  0  0  0  0
   -1.5930    0.3328   -0.5544 C   0  0  0  0  0  0  0  0  0  0  0  0
   -3.3196   -0.8223    0.6517 C   0  0  0  0  0  0  0  0  0  0  0  0
   -2.4488    1.3199   -1.0273 C   0  0  0  0  0  0  0  0  0  0  0  0
   -4.2141    0.1560    0.1940 C   0  0  0  0  0  0  0  0  0  0  0  0
   -3.7849    1.2048   -0.6287 C   0  0  0  0  0  0  0  0  0  0  0  0
    2.4006    0.5334   -1.2075 H   0  0  0  0  0  0  0  0  0  0  0  0
    2.4313    0.3928    1.8630 H   0  0  0  0  0  0  0  0  0  0  0  0
    1.6030    1.5991    0.8584 H   0  0  0  0  0  0  0  0  0  0  0  0
    3.7279    2.5824    0.1933 H   0  0  0  0  0  0  0  0  0  0  0  0
    4.0546    2.1012    1.8791 H   0  0  0  0  0  0  0  0  0  0  0  0
   -3.6487   -1.6366    1.2897 H   0  0  0  0  0  0  0  0  0  0  0  0
   -2.1066    2.1268   -1.6631 H   0  0  0  0  0  0  0  0  0  0  0  0
   -4.4944    1.9545   -0.9735 H   0  0  0  0  0  0  0  0  0  0  0  0
  1 16  1  0  0  0  0
  2  7  1  0  0  0  0
  2 11  1  0  0  0  0
  3  9  1  0  0  0  0
  3 10  1  0  0  0  0
  4 11  1  0  0  0  0
  4 13  1  0  0  0  0
  5 10  2  0  0  0  0
  6 11  2  0  0  0  0
  6 12  1  0  0  0  0
  7  8  1  0  0  0  0
  7 10  1  0  0  0  0
  7 18  1  0  0  0  0
  8  9  1  0  0  0  0
  8 19  1  0  0  0  0
  8 20  1  0  0  0  0
  9 21  1  0  0  0  0
  9 22  1  0  0  0  0
 12 13  2  0  0  0  0
 12 14  1  0  0  0  0
 13 15  1  0  0  0  0
 14 16  2  0  0  0  0
 14 23  1  0  0  0  0
 15 17  2  0  0  0  0
 15 24  1  0  0  0  0
 16 17  1  0  0  0  0
 17 25  1  0  0  0  0
M  END
> <PUBCHEM_COMPOUND_CID>
3000015

> <PUBCHEM_CONFORMER_RMSD>
0.6

> <PUBCHEM_CONFORMER_DIVERSEORDER>
1
26
28
25
15
17
5
16
8
19
4
20
10
13
14
27
6
24
2
23
7
21
18
22
3
9
11
12

> <PUBCHEM_MMFF94_PARTIAL_CHARGES>
19
1 -0.18
10 0.66
11 0.53
12 0.23
13 0.14
14 -0.15
15 -0.15
16 0.18
17 -0.15
2 -0.29
23 0.15
24 0.15
25 0.15
3 -0.43
4 -0.28
5 -0.57
6 -0.57
7 0.29
9 0.28

> <PUBCHEM_EFFECTIVE_ROTOR_COUNT>
2.8

> <PUBCHEM_PHARMACOPHORE_FEATURES>
4
1 5 acceptor
5 3 7 8 9 10 rings
5 4 6 11 12 13 rings
6 12 13 14 15 16 17 rings

> <PUBCHEM_HEAVY_ATOM_COUNT>
17

> <PUBCHEM_ATOM_DEF_STEREO_COUNT>
0

> <PUBCHEM_ATOM_UDEF_STEREO_COUNT>
1

> <PUBCHEM_BOND_DEF_STEREO_COUNT>
0

> <PUBCHEM_BOND_UDEF_STEREO_COUNT>
0

> <PUBCHEM_ISOTOPIC_ATOM_COUNT>
0

> <PUBCHEM_COMPONENT_COUNT>
1

> <PUBCHEM_CACTVS_TAUTO_COUNT>
2

> <PUBCHEM_CONFORMER_ID>
002DC6CF00000001

> <PUBCHEM_MMFF94_ENERGY>
23.6821

> <PUBCHEM_FEATURE_SELFOVERLAP>
20.415

> <PUBCHEM_SHAPE_FINGERPRINT>
10366900 7 15502381114431294100
10608611 8 18409725162491429684
11132069 177 18186518817416464629
11471102 20 18131070433459381978
11615757 297 17989487411513262091
12236239 1 16056881316766401159
12251169 10 17676486172185192173
12390115 104 18265061228325650045
12403259 415 18335699420938365981
12730499 353 18413114947933904602
12815109 37 9799689294411622738
13081056 2 18411418405850068780
13675066 3 18335986444980862478
14251764 30 15432819287914381882
15219456 202 18409728434955939366
17834072 33 17703787046398898431
18186145 218 18201714050779602274
19433438 28 18333731299335010048
200 152 17346596365682835563
20510252 161 18262236612912909641
20645477 56 18409727391273390718
20645477 70 17918279727659237982
21033648 29 18339066138406691729
21652331 79 18410008832038374385
221357 26 18130507453051241256
22854114 59 18409446998660119681
2297311 6 18114474378568062965
23402539 116 17968093157974800951
23402655 69 17703788154584785180
23557571 272 18041287564924698677
23559900 14 17896040944808416398
351380 180 18272650151352064928
3545911 37 18335424547252425574
449060 50 18410855464660525519
5104073 3 18042405725627690625
542803 24 16988846072862362625
633830 44 18271801319827510068
69090 78 18342172293193836711
7364860 26 18191580848634444338
8272917 22 17489316234838055446
90316 7 16588012485874738405

> <PUBCHEM_SHAPE_MULTIPOLES>
332.98
11.33
1.54
0.96
0.91
0.05
0
2.08
-1.43
-0.72
-0.08
0.04
0.19
1.34

> <PUBCHEM_SHAPE_SELFOVERLAP>
707.655

> <PUBCHEM_SHAPE_VOLUME>
189.6

> <PUBCHEM_COORDINATE_TYPE>
2
5
10

$$$$
