2327561
  -OEChem-09082001393D

 33 36  0     0  0  0  0  0  0999 V2000
   -1.8256   -3.0319   -0.1620 O   0  0  0  0  0  0  0  0  0  0  0  0
    1.7225    2.9930    0.1792 O   0  0  0  0  0  0  0  0  0  0  0  0
    1.0571   -0.9358   -0.0432 N   0  0  0  0  0  0  0  0  0  0  0  0
    0.1977    1.2840    0.0866 N   0  0  0  0  0  0  0  0  0  0  0  0
    0.5386   -2.2866   -0.1023 C   0  0  0  0  0  0  0  0  0  0  0  0
    0.0467   -0.0020    0.0089 C   0  0  0  0  0  0  0  0  0  0  0  0
   -1.2794   -0.6857   -0.0224 C   0  0  0  0  0  0  0  0  0  0  0  0
    2.3775   -0.5407   -0.0200 C   0  0  0  0  0  0  0  0  0  0  0  0
   -0.9412   -1.9893   -0.0854 C   0  0  0  0  0  0  0  0  0  0  0  0
    2.6442    0.8396    0.0574 C   0  0  0  0  0  0  0  0  0  0  0  0
   -2.5991   -0.0643   -0.0124 C   0  0  0  0  0  0  0  0  0  0  0  0
    3.4573   -1.4283   -0.0692 C   0  0  0  0  0  0  0  0  0  0  0  0
    1.4881    1.7902    0.1123 C   0  0  0  0  0  0  0  0  0  0  0  0
    3.9578    1.3188    0.0845 C   0  0  0  0  0  0  0  0  0  0  0  0
   -3.6986   -0.7379    0.5381 C   0  0  0  0  0  0  0  0  0  0  0  0
   -2.7872    1.2157   -0.5530 C   0  0  0  0  0  0  0  0  0  0  0  0
    4.7701   -0.9518   -0.0423 C   0  0  0  0  0  0  0  0  0  0  0  0
    5.0193    0.4174    0.0343 C   0  0  0  0  0  0  0  0  0  0  0  0
   -4.9606   -0.1439    0.5475 C   0  0  0  0  0  0  0  0  0  0  0  0
   -4.0493    1.8096   -0.5434 C   0  0  0  0  0  0  0  0  0  0  0  0
   -5.1359    1.1298    0.0068 C   0  0  0  0  0  0  0  0  0  0  0  0
    0.8314   -2.8750    0.7728 H   0  0  0  0  0  0  0  0  0  0  0  0
    0.8282   -2.7941   -1.0278 H   0  0  0  0  0  0  0  0  0  0  0  0
    3.2939   -2.5013   -0.1295 H   0  0  0  0  0  0  0  0  0  0  0  0
    4.1722    2.3819    0.1444 H   0  0  0  0  0  0  0  0  0  0  0  0
   -3.5989   -1.7195    0.9926 H   0  0  0  0  0  0  0  0  0  0  0  0
   -1.9767    1.7654   -1.0219 H   0  0  0  0  0  0  0  0  0  0  0  0
    5.6001   -1.6518   -0.0813 H   0  0  0  0  0  0  0  0  0  0  0  0
    6.0422    0.7820    0.0550 H   0  0  0  0  0  0  0  0  0  0  0  0
   -1.3059   -3.8530   -0.2063 H   0  0  0  0  0  0  0  0  0  0  0  0
   -5.8060   -0.6704    0.9809 H   0  0  0  0  0  0  0  0  0  0  0  0
   -4.1881    2.7982   -0.9711 H   0  0  0  0  0  0  0  0  0  0  0  0
   -6.1186    1.5921    0.0138 H   0  0  0  0  0  0  0  0  0  0  0  0
  1  9  1  0  0  0  0
  1 30  1  0  0  0  0
  2 13  2  0  0  0  0
  3  5  1  0  0  0  0
  3  6  1  0  0  0  0
  3  8  1  0  0  0  0
  4  6  2  0  0  0  0
  4 13  1  0  0  0  0
  5  9  1  0  0  0  0
  5 22  1  0  0  0  0
  5 23  1  0  0  0  0
  6  7  1  0  0  0  0
  7  9  2  0  0  0  0
  7 11  1  0  0  0  0
  8 10  1  0  0  0  0
  8 12  2  0  0  0  0
 10 13  1  0  0  0  0
 10 14  2  0  0  0  0
 11 15  2  0  0  0  0
 11 16  1  0  0  0  0
 12 17  1  0  0  0  0
 12 24  1  0  0  0  0
 14 18  1  0  0  0  0
 14 25  1  0  0  0  0
 15 19  1  0  0  0  0
 15 26  1  0  0  0  0
 16 20  2  0  0  0  0
 16 27  1  0  0  0  0
 17 18  2  0  0  0  0
 17 28  1  0  0  0  0
 18 29  1  0  0  0  0
 19 21  2  0  0  0  0
 19 31  1  0  0  0  0
 20 21  1  0  0  0  0
 20 32  1  0  0  0  0
 21 33  1  0  0  0  0
M  END
> <PUBCHEM_COMPOUND_CID>
2327561

> <PUBCHEM_CONFORMER_RMSD>
0.6

> <PUBCHEM_CONFORMER_DIVERSEORDER>
1

> <PUBCHEM_MMFF94_PARTIAL_CHARGES>
31
1 -0.53
10 0.09
11 0.03
12 -0.15
13 0.69
14 -0.15
15 -0.15
16 -0.15
17 -0.15
18 -0.15
19 -0.15
2 -0.57
20 -0.15
21 -0.15
24 0.15
25 0.15
26 0.15
27 0.15
28 0.15
29 0.15
3 -0.52
30 0.45
31 0.15
32 0.15
33 0.15
4 -0.66
5 0.51
6 0.49
7 -0.01
8 0.1
9 -0.06

> <PUBCHEM_EFFECTIVE_ROTOR_COUNT>
1.2

> <PUBCHEM_PHARMACOPHORE_FEATURES>
7
1 1 donor
1 2 acceptor
1 4 donor
5 3 5 6 7 9 rings
6 11 15 16 19 20 21 rings
6 3 4 6 8 10 13 rings
6 8 10 12 14 17 18 rings

> <PUBCHEM_HEAVY_ATOM_COUNT>
21

> <PUBCHEM_ATOM_DEF_STEREO_COUNT>
0

> <PUBCHEM_ATOM_UDEF_STEREO_COUNT>
0

> <PUBCHEM_BOND_DEF_STEREO_COUNT>
0

> <PUBCHEM_BOND_UDEF_STEREO_COUNT>
0

> <PUBCHEM_ISOTOPIC_ATOM_COUNT>
0

> <PUBCHEM_COMPONENT_COUNT>
1

> <PUBCHEM_CACTVS_TAUTO_COUNT>
7

> <PUBCHEM_CONFORMER_ID>
0023840900000001

> <PUBCHEM_MMFF94_ENERGY>
70.7377

> <PUBCHEM_FEATURE_SELFOVERLAP>
35.657

> <PUBCHEM_SHAPE_FINGERPRINT>
10 15 18261951968224104192
10411042 1 17474670546820499383
10967382 1 18411418380438974102
11471102 20 18412261718336146381
11578080 2 17058356235676395146
12236239 1 17489305261692206449
12403259 226 18339076116074344297
12403259 415 18410007736890513001
12507557 5 18412265030188649921
12592029 89 18334858277278949882
12788726 201 17845947242608223520
13140716 1 18267302208440983418
13402501 40 18334856078783208117
13583140 156 17968105230547498555
13675066 3 18335142020145637210
13862211 1 18411131403377289046
14178342 30 17979335775752903106
14341114 176 18334866008657685289
14790565 3 18338524044941144596
15081414 286 18270973362203157688
15099037 51 18411700971864445798
15196674 1 18410292510174746989
1601671 61 18337110072950420640
17349148 13 17846502521322084192
19591789 44 18265894657648478014
19784866 9 18187362073946927594
200 152 18060133233196118913
21033648 29 18339067238187384001
21033650 10 15265967439841022120
21267235 1 18339088103465139434
21279426 13 18194683666073238276
23227448 37 18341331184163041287
23402539 116 18273207586620057031
23558518 356 17900819667218903898
23559900 14 18201717392939599928
3004659 81 18187932729936951422
335352 9 18411418397866763550
34934 24 18411412930473661154
350125 39 18339365296222293027
351380 180 18408885140087359929
3545911 37 18341615936326048154
3680242 22 18263643966068380458
4214541 1 18410293631171754251
495365 180 17346305038636652306
5104073 3 18409729585991182362
6138700 20 18266462006039274766
69090 78 18412824711476857799
7164475 11 17910384318906136695
7832392 63 18339918320405923502
9709674 26 18340208603944242782
9981440 41 17402042800189808648

> <PUBCHEM_SHAPE_MULTIPOLES>
410.47
10.34
2.61
0.66
1.9
0.3
0
-2.44
0.43
-0.05
-0.12
0.22
-0.03
0.47

> <PUBCHEM_SHAPE_SELFOVERLAP>
927.604

> <PUBCHEM_SHAPE_VOLUME>
214.5

> <PUBCHEM_COORDINATE_TYPE>
2
5
10

$$$$
