646846
  -OEChem-09082001183D

 52 53  0     1  0  0  0  0  0999 V2000
    6.0558    0.2056   -0.9177 O   0  0  0  0  0  0  0  0  0  0  0  0
    3.5538   -1.4775    0.9791 O   0  0  0  0  0  0  0  0  0  0  0  0
   -0.3563   -0.2317    0.0786 N   0  0  0  0  0  0  0  0  0  0  0  0
   -6.6574   -0.0069   -0.4783 N   0  0  0  0  0  0  0  0  0  0  0  0
    3.3950   -0.7479   -0.2379 C   0  0  1  0  0  0  0  0  0  0  0  0
    3.8327    0.7069   -0.0065 C   0  0  0  0  0  0  0  0  0  0  0  0
    5.3618    0.8908    0.1345 C   0  0  0  0  0  0  0  0  0  0  0  0
    4.2614   -1.3837   -1.3303 C   0  0  0  0  0  0  0  0  0  0  0  0
    1.9126   -0.8101   -0.6139 C   0  0  0  0  0  0  0  0  0  0  0  0
    5.7443   -1.1780   -1.0502 C   0  0  0  0  0  0  0  0  0  0  0  0
    5.6969    2.3803   -0.0486 C   0  0  0  0  0  0  0  0  0  0  0  0
    5.8974    0.4587    1.5077 C   0  0  0  0  0  0  0  0  0  0  0  0
    1.0507   -0.1435    0.4503 C   0  0  0  0  0  0  0  0  0  0  0  0
   -1.2020    0.3709    1.0995 C   0  0  0  0  0  0  0  0  0  0  0  0
   -2.6381    0.2716    0.6841 C   0  0  0  0  0  0  0  0  0  0  0  0
   -3.3871   -0.8421    1.0507 C   0  0  0  0  0  0  0  0  0  0  0  0
   -3.2125    1.2934   -0.0656 C   0  0  0  0  0  0  0  0  0  0  0  0
   -5.3053    0.0864   -0.0877 C   0  0  0  0  0  0  0  0  0  0  0  0
   -4.7241   -0.9349    0.6638 C   0  0  0  0  0  0  0  0  0  0  0  0
   -4.5494    1.2006   -0.4524 C   0  0  0  0  0  0  0  0  0  0  0  0
   -7.4540   -1.1535   -0.1082 C   0  0  0  0  0  0  0  0  0  0  0  0
   -7.2763    1.0447   -1.2509 C   0  0  0  0  0  0  0  0  0  0  0  0
    3.4899    1.3019   -0.8643 H   0  0  0  0  0  0  0  0  0  0  0  0
    3.3703    1.1248    0.8953 H   0  0  0  0  0  0  0  0  0  0  0  0
    4.0216   -0.9219   -2.2966 H   0  0  0  0  0  0  0  0  0  0  0  0
    4.0601   -2.4582   -1.4114 H   0  0  0  0  0  0  0  0  0  0  0  0
    1.6048   -1.8592   -0.7198 H   0  0  0  0  0  0  0  0  0  0  0  0
    1.7460   -0.3251   -1.5846 H   0  0  0  0  0  0  0  0  0  0  0  0
    6.0706   -1.7291   -0.1625 H   0  0  0  0  0  0  0  0  0  0  0  0
    6.3289   -1.5637   -1.8920 H   0  0  0  0  0  0  0  0  0  0  0  0
    6.7782    2.5490    0.0177 H   0  0  0  0  0  0  0  0  0  0  0  0
    5.3943    2.7302   -1.0425 H   0  0  0  0  0  0  0  0  0  0  0  0
    5.2015    3.0026    0.7040 H   0  0  0  0  0  0  0  0  0  0  0  0
    6.9808    0.6180    1.5637 H   0  0  0  0  0  0  0  0  0  0  0  0
    5.4246    1.0260    2.3165 H   0  0  0  0  0  0  0  0  0  0  0  0
    5.7431   -0.6037    1.7092 H   0  0  0  0  0  0  0  0  0  0  0  0
    1.3019    0.9172    0.5418 H   0  0  0  0  0  0  0  0  0  0  0  0
    1.2098   -0.6208    1.4242 H   0  0  0  0  0  0  0  0  0  0  0  0
    3.3058   -2.4026    0.8113 H   0  0  0  0  0  0  0  0  0  0  0  0
   -0.6102   -1.2124   -0.0427 H   0  0  0  0  0  0  0  0  0  0  0  0
   -0.9389    1.4259    1.2494 H   0  0  0  0  0  0  0  0  0  0  0  0
   -1.0637   -0.1261    2.0685 H   0  0  0  0  0  0  0  0  0  0  0  0
   -2.9442   -1.6444    1.6348 H   0  0  0  0  0  0  0  0  0  0  0  0
   -2.6328    2.1652   -0.3568 H   0  0  0  0  0  0  0  0  0  0  0  0
   -5.2700   -1.8212    0.9719 H   0  0  0  0  0  0  0  0  0  0  0  0
   -4.9556    2.0205   -1.0364 H   0  0  0  0  0  0  0  0  0  0  0  0
   -7.0368   -2.0773   -0.5248 H   0  0  0  0  0  0  0  0  0  0  0  0
   -8.4798   -1.0796   -0.4868 H   0  0  0  0  0  0  0  0  0  0  0  0
   -7.5321   -1.2470    0.9808 H   0  0  0  0  0  0  0  0  0  0  0  0
   -6.7762    1.1732   -2.2174 H   0  0  0  0  0  0  0  0  0  0  0  0
   -7.2665    1.9953   -0.7058 H   0  0  0  0  0  0  0  0  0  0  0  0
   -8.3269    0.8265   -1.4731 H   0  0  0  0  0  0  0  0  0  0  0  0
  1  7  1  0  0  0  0
  1 10  1  0  0  0  0
  2  5  1  0  0  0  0
  2 39  1  0  0  0  0
  3 13  1  0  0  0  0
  3 14  1  0  0  0  0
  3 40  1  0  0  0  0
  4 18  1  0  0  0  0
  4 21  1  0  0  0  0
  4 22  1  0  0  0  0
  5  6  1  0  0  0  0
  5  8  1  0  0  0  0
  5  9  1  0  0  0  0
  6  7  1  0  0  0  0
  6 23  1  0  0  0  0
  6 24  1  0  0  0  0
  7 11  1  0  0  0  0
  7 12  1  0  0  0  0
  8 10  1  0  0  0  0
  8 25  1  0  0  0  0
  8 26  1  0  0  0  0
  9 13  1  0  0  0  0
  9 27  1  0  0  0  0
  9 28  1  0  0  0  0
 10 29  1  0  0  0  0
 10 30  1  0  0  0  0
 11 31  1  0  0  0  0
 11 32  1  0  0  0  0
 11 33  1  0  0  0  0
 12 34  1  0  0  0  0
 12 35  1  0  0  0  0
 12 36  1  0  0  0  0
 13 37  1  0  0  0  0
 13 38  1  0  0  0  0
 14 15  1  0  0  0  0
 14 41  1  0  0  0  0
 14 42  1  0  0  0  0
 15 16  2  0  0  0  0
 15 17  1  0  0  0  0
 16 19  1  0  0  0  0
 16 43  1  0  0  0  0
 17 20  2  0  0  0  0
 17 44  1  0  0  0  0
 18 19  2  0  0  0  0
 18 20  1  0  0  0  0
 19 45  1  0  0  0  0
 20 46  1  0  0  0  0
 21 47  1  0  0  0  0
 21 48  1  0  0  0  0
 21 49  1  0  0  0  0
 22 50  1  0  0  0  0
 22 51  1  0  0  0  0
 22 52  1  0  0  0  0
M  END
> <PUBCHEM_COMPOUND_CID>
646846

> <PUBCHEM_CONFORMER_RMSD>
0.8

> <PUBCHEM_CONFORMER_DIVERSEORDER>
2
160
12
156
118
170
107
1
179
27
87
8
94
55
86
147
137
80
72
24
11
134
163
3
50
13
109
71
145
51
168
148
19
40
128
22
123
176
36
104
46
6
84
64
142
162
81
52
14
157
85
174
116
10
113
167
29
42
154
67
7
158
23
58
112
98
138
95
63
78
121
33
175
111
155
120
105
146
100
44
139
43
56
45
15
129
97
53
92
143
152
5
16
159
99
103
119
57
115
4
132
135
65
20
61
171
166
35
126
30
136
177
47
125
17
153
96
73
130
178
70
74
127
161
89
90
66
9
62
150
39
75
25
101
69
82
102
151
54
133
124
149
77
41
21
131
76
93
18
114
79
34
164
26
141
173
140
91
31
60
88
165
169
172
108
32
106
122
144
37
59
49
68
38
48
28
110
83
117

> <PUBCHEM_MMFF94_PARTIAL_CHARGES>
23
1 -0.56
10 0.28
13 0.27
14 0.41
15 -0.14
16 -0.15
17 -0.15
18 0.1
19 -0.15
2 -0.68
20 -0.15
21 0.37
22 0.37
3 -0.9
39 0.4
4 -0.84
40 0.36
43 0.15
44 0.15
45 0.15
46 0.15
5 0.28
7 0.28

> <PUBCHEM_EFFECTIVE_ROTOR_COUNT>
7.2

> <PUBCHEM_PHARMACOPHORE_FEATURES>
9
1 1 acceptor
1 2 acceptor
1 2 donor
1 3 cation
1 3 donor
1 4 cation
3 7 11 12 hydrophobe
6 1 5 6 7 8 10 rings
6 15 16 17 18 19 20 rings

> <PUBCHEM_HEAVY_ATOM_COUNT>
22

> <PUBCHEM_ATOM_DEF_STEREO_COUNT>
0

> <PUBCHEM_ATOM_UDEF_STEREO_COUNT>
1

> <PUBCHEM_BOND_DEF_STEREO_COUNT>
0

> <PUBCHEM_BOND_UDEF_STEREO_COUNT>
0

> <PUBCHEM_ISOTOPIC_ATOM_COUNT>
0

> <PUBCHEM_COMPONENT_COUNT>
1

> <PUBCHEM_CACTVS_TAUTO_COUNT>
1

> <PUBCHEM_CONFORMER_ID>
0009DEBE00000002

> <PUBCHEM_MMFF94_ENERGY>
72.7599

> <PUBCHEM_FEATURE_SELFOVERLAP>
45.67

> <PUBCHEM_SHAPE_FINGERPRINT>
10299344 5 14261353561104620277
10595046 47 17917437488371424944
10638233 991 16056879164819059640
10968037 39 18410012144254393799
11089746 13 15285359539763886263
11128504 68 16128657457661235760
11315181 36 18272654550469396337
11524674 6 11241973668543732505
11719270 70 18411132516143454394
12166972 35 17489591160190184360
12236239 1 15985389975448403009
12516196 113 18131069337915927505
13167372 99 13479126878617122671
13533116 47 17275107193603299486
13668630 136 17917998265219211063
13914758 101 13623516949374606207
14123256 10 17632858637442845921
1420 363 14045740417772346911
14251752 14 12829479355725528647
14251764 18 13479140107485418731
14347424 109 12468632846693040276
14461889 52 18340203093923234618
14528608 73 18408888425610760330
14617045 38 12895077318396774517
15142383 8 7781521399741366894
15183329 4 16950004725289432575
15348495 7 8574413323453713733
15537594 2 15913323581291576197
15716309 27 16272210782473667063
15799311 1 15051743000969032444
17844677 252 18129954385907089456
19489759 90 17822014202907065977
20157964 124 18413672418199496500
20281389 69 12468356856152540535
20511986 3 17458613532452954523
20554085 129 17023173951131826353
21150785 3 18201717379700906087
21315759 40 16056885710618295558
23035841 295 14764346037857467517
23081809 10 17060346192961847075
23424782 7 18341613771852662411
23522609 53 15840451308845022298
23559900 14 18410570734578971057
239999 70 18341619192365231598
2767999 5 16370727028174167845
2838139 119 14056714656910764503
300161 21 17676206866225196363
3009799 131 18113898260809511645
34797466 226 18342463650842510756
351380 3 15410892942385510511
4072396 5 14996279228244289682
4073 2 17531535377011126090
4325135 7 18060138751575005812

> <PUBCHEM_SHAPE_MULTIPOLES>
431.05
22.41
1.59
1.19
13.89
0.36
-0.06
1.7
4.55
-1.53
0.22
-0.44
-0.12
1.5

> <PUBCHEM_SHAPE_SELFOVERLAP>
879.918

> <PUBCHEM_SHAPE_VOLUME>
251.6

> <PUBCHEM_COORDINATE_TYPE>
2
5
10

$$$$
