651065
  -OEChem-09082001403D

 49 51  0     0  0  0  0  0  0999 V2000
    7.0305   -1.6207   -2.7034 Br  0  0  0  0  0  0  0  0  0  0  0  0
   -5.7865   -1.6935   -0.6646 O   0  0  0  0  0  0  0  0  0  0  0  0
    0.0503    3.0757    0.4905 O   0  0  0  0  0  0  0  0  0  0  0  0
    2.6773   -3.1717    2.4377 O   0  0  0  0  0  0  0  0  0  0  0  0
    2.4753    2.2390    0.4838 O   0  0  0  0  0  0  0  0  0  0  0  0
    1.6518    0.1973    1.2760 N   0  0  0  0  0  0  0  0  0  0  0  0
   -1.9345    2.2875   -0.3447 N   0  0  0  0  0  0  0  0  0  0  0  0
    0.6067    0.7895    2.0532 C   0  0  0  0  0  0  0  0  0  0  0  0
   -0.6243    0.9138    1.2098 C   0  0  0  0  0  0  0  0  0  0  0  0
   -2.7444    0.1021    0.3025 C   0  0  0  0  0  0  0  0  0  0  0  0
    1.7438   -1.2719    1.3072 C   0  0  0  0  0  0  0  0  0  0  0  0
   -1.5539   -0.0514    1.1350 C   0  0  0  0  0  0  0  0  0  0  0  0
   -2.9114    1.2819   -0.4280 C   0  0  0  0  0  0  0  0  0  0  0  0
   -0.7948    2.1837    0.4293 C   0  0  0  0  0  0  0  0  0  0  0  0
    2.5305    1.0105    0.5286 C   0  0  0  0  0  0  0  0  0  0  0  0
   -3.7163   -0.8995    0.2202 C   0  0  0  0  0  0  0  0  0  0  0  0
    2.6492   -1.7503    2.4275 C   0  0  0  0  0  0  0  0  0  0  0  0
   -4.0351    1.4677   -1.2355 C   0  0  0  0  0  0  0  0  0  0  0  0
   -4.8414   -0.7166   -0.5865 C   0  0  0  0  0  0  0  0  0  0  0  0
    3.6095    0.3785   -0.2470 C   0  0  0  0  0  0  0  0  0  0  0  0
   -5.0003    0.4643   -1.3126 C   0  0  0  0  0  0  0  0  0  0  0  0
    4.8434    0.1705    0.3497 C   0  0  0  0  0  0  0  0  0  0  0  0
    3.3737    0.0029   -1.5604 C   0  0  0  0  0  0  0  0  0  0  0  0
   -7.1297   -1.2790   -0.9081 C   0  0  0  0  0  0  0  0  0  0  0  0
    5.8667   -0.4282   -0.3853 C   0  0  0  0  0  0  0  0  0  0  0  0
    4.3968   -0.5960   -2.2953 C   0  0  0  0  0  0  0  0  0  0  0  0
    5.6434   -0.8115   -1.7077 C   0  0  0  0  0  0  0  0  0  0  0  0
   -8.0761   -2.2745   -0.2718 C   0  0  0  0  0  0  0  0  0  0  0  0
    0.4181    0.1772    2.9434 H   0  0  0  0  0  0  0  0  0  0  0  0
    0.9244    1.7697    2.4268 H   0  0  0  0  0  0  0  0  0  0  0  0
    0.7459   -1.7085    1.4159 H   0  0  0  0  0  0  0  0  0  0  0  0
    2.1173   -1.6463    0.3491 H   0  0  0  0  0  0  0  0  0  0  0  0
   -1.4532   -0.9712    1.7018 H   0  0  0  0  0  0  0  0  0  0  0  0
   -2.0779    3.1360   -0.8848 H   0  0  0  0  0  0  0  0  0  0  0  0
   -3.6047   -1.8248    0.7811 H   0  0  0  0  0  0  0  0  0  0  0  0
    3.6736   -1.3860    2.3278 H   0  0  0  0  0  0  0  0  0  0  0  0
    2.2760   -1.4165    3.4009 H   0  0  0  0  0  0  0  0  0  0  0  0
   -4.1646    2.3812   -1.8095 H   0  0  0  0  0  0  0  0  0  0  0  0
   -5.8471    0.6307   -1.9719 H   0  0  0  0  0  0  0  0  0  0  0  0
    5.0282    0.4725    1.3768 H   0  0  0  0  0  0  0  0  0  0  0  0
    2.4052    0.1673   -2.0247 H   0  0  0  0  0  0  0  0  0  0  0  0
   -7.3044   -1.2406   -1.9890 H   0  0  0  0  0  0  0  0  0  0  0  0
   -7.3407   -0.2970   -0.4663 H   0  0  0  0  0  0  0  0  0  0  0  0
    6.8327   -0.5874    0.0871 H   0  0  0  0  0  0  0  0  0  0  0  0
    4.2063   -0.8886   -3.3247 H   0  0  0  0  0  0  0  0  0  0  0  0
    3.0376   -3.4630    1.5827 H   0  0  0  0  0  0  0  0  0  0  0  0
   -7.9043   -2.3344    0.8080 H   0  0  0  0  0  0  0  0  0  0  0  0
   -7.9086   -3.2783   -0.6764 H   0  0  0  0  0  0  0  0  0  0  0  0
   -9.1180   -1.9928   -0.4485 H   0  0  0  0  0  0  0  0  0  0  0  0
  1 27  1  0  0  0  0
  2 19  1  0  0  0  0
  2 24  1  0  0  0  0
  3 14  2  0  0  0  0
  4 17  1  0  0  0  0
  4 46  1  0  0  0  0
  5 15  2  0  0  0  0
  6  8  1  0  0  0  0
  6 11  1  0  0  0  0
  6 15  1  0  0  0  0
  7 13  1  0  0  0  0
  7 14  1  0  0  0  0
  7 34  1  0  0  0  0
  8  9  1  0  0  0  0
  8 29  1  0  0  0  0
  8 30  1  0  0  0  0
  9 12  2  0  0  0  0
  9 14  1  0  0  0  0
 10 12  1  0  0  0  0
 10 13  2  0  0  0  0
 10 16  1  0  0  0  0
 11 17  1  0  0  0  0
 11 31  1  0  0  0  0
 11 32  1  0  0  0  0
 12 33  1  0  0  0  0
 13 18  1  0  0  0  0
 15 20  1  0  0  0  0
 16 19  2  0  0  0  0
 16 35  1  0  0  0  0
 17 36  1  0  0  0  0
 17 37  1  0  0  0  0
 18 21  2  0  0  0  0
 18 38  1  0  0  0  0
 19 21  1  0  0  0  0
 20 22  2  0  0  0  0
 20 23  1  0  0  0  0
 21 39  1  0  0  0  0
 22 25  1  0  0  0  0
 22 40  1  0  0  0  0
 23 26  2  0  0  0  0
 23 41  1  0  0  0  0
 24 28  1  0  0  0  0
 24 42  1  0  0  0  0
 24 43  1  0  0  0  0
 25 27  2  0  0  0  0
 25 44  1  0  0  0  0
 26 27  1  0  0  0  0
 26 45  1  0  0  0  0
 28 47  1  0  0  0  0
 28 48  1  0  0  0  0
 28 49  1  0  0  0  0
M  END
> <PUBCHEM_COMPOUND_CID>
651065

> <PUBCHEM_CONFORMER_RMSD>
1

> <PUBCHEM_CONFORMER_DIVERSEORDER>
1
72
105
118
127
88
68
89
106
92
62
82
54
122
79
93
45
91
40
123
120
104
100
83
29
124
77
114
86
129
16
128
63
22
30
70
66
101
73
10
37
4
125
52
33
14
115
11
60
58
113
103
57
13
2
9
98
121
3
50
84
36
35
17
102
59
38
107
111
34
7
76
55
65
20
23
12
116
41
78
31
56
75
51
44
46
8
97
25
126
94
110
49
6
18
21
64
119
108
26
53
5
69
117
47
32
81
28
39
87
48
19
24
74
80
99
42
85
67
112
43
90
96
95
109
27
61
71
15

> <PUBCHEM_MMFF94_PARTIAL_CHARGES>
37
1 -0.11
10 0.03
11 0.3
12 -0.18
13 0.12
14 0.62
15 0.54
16 -0.15
17 0.28
18 -0.15
19 0.08
2 -0.36
20 0.09
21 -0.15
22 -0.15
23 -0.15
24 0.28
25 -0.15
26 -0.15
27 0.11
3 -0.57
33 0.15
34 0.37
35 0.15
38 0.15
39 0.15
4 -0.68
40 0.15
41 0.15
44 0.15
45 0.15
46 0.4
5 -0.57
6 -0.66
7 -0.55
8 0.44
9 -0.12

> <PUBCHEM_EFFECTIVE_ROTOR_COUNT>
8

> <PUBCHEM_PHARMACOPHORE_FEATURES>
10
1 1 hydrophobe
1 2 acceptor
1 3 acceptor
1 4 acceptor
1 4 donor
1 5 acceptor
1 7 donor
6 10 13 16 18 19 21 rings
6 20 22 23 25 26 27 rings
6 7 9 10 12 13 14 rings

> <PUBCHEM_HEAVY_ATOM_COUNT>
28

> <PUBCHEM_ATOM_DEF_STEREO_COUNT>
0

> <PUBCHEM_ATOM_UDEF_STEREO_COUNT>
0

> <PUBCHEM_BOND_DEF_STEREO_COUNT>
0

> <PUBCHEM_BOND_UDEF_STEREO_COUNT>
0

> <PUBCHEM_ISOTOPIC_ATOM_COUNT>
0

> <PUBCHEM_COMPONENT_COUNT>
1

> <PUBCHEM_CACTVS_TAUTO_COUNT>
2

> <PUBCHEM_CONFORMER_ID>
0009EF3900000001

> <PUBCHEM_MMFF94_ENERGY>
82.0255

> <PUBCHEM_FEATURE_SELFOVERLAP>
50.786

> <PUBCHEM_SHAPE_FINGERPRINT>
10319926 262 10231750128256987845
10693767 8 18190741939107147138
11069576 57 17896872158804495426
11828532 37 18193847152668888799
12633257 1 12391507594260880633
13103583 49 13614232689747575380
13402501 40 17560805437183316999
13540713 5 17898565380703531424
13560911 23 12103546611759348037
13668630 136 18201439199001392239
13673619 4 16702307827962969136
13685833 64 17560804355199327559
13690498 29 18409162213081535853
13782708 43 17346318138334553414
13955234 65 16271347738828652872
14251764 30 17846780719613437535
14767858 380 17603583045695954931
14931854 50 18113899342534732319
14950920 106 13614223911071331581
15183329 4 16805324387857124356
15324884 4 17389960185254779385
15475509 35 15913327996244045798
15510800 12 17703520921472079478
17492 54 16298389080014456285
20554085 129 7925919179653982167
20567600 254 11602815805145564325
20775438 99 17979909733480780718
21033648 144 15937276502427572668
21307412 95 18341897433173903815
21344244 181 18201443609616911086
21521239 73 18186804643670417034
22393880 68 18409724037046766644
22899556 105 18334860484887300115
23503953 91 10663816403719843665
23559900 14 17561073705246472337
239999 70 18271798077486287600
2838139 119 15285357306154299364
312425 54 14620502467824611743
3472631 163 14273737373532421003
34797466 226 18337387266040188933
3737641 26 16056051121242237372
404807 78 17459759314112083595
439807 62 17988650683323053423
46194498 28 18342172314695306940
474 4 15791450413654581720
54039377 194 17274834528036673078
5718773 13 17917155971194491838
58260988 587 16557330760573862448
70251023 43 18202569479463764168
86090 222 16845307050033039519

> <PUBCHEM_SHAPE_MULTIPOLES>
548.73
18.1
2.6
2.3
12.6
0.42
-1.45
-17.76
8.96
0.59
0.29
-3.07
-1.19
1.88

> <PUBCHEM_SHAPE_SELFOVERLAP>
1161.91

> <PUBCHEM_SHAPE_VOLUME>
313.2

> <PUBCHEM_COORDINATE_TYPE>
2
5
10

$$$$
