5342601
  -OEChem-09082001343D

 26 27  0     0  0  0  0  0  0999 V2000
   -1.0241    2.9635    0.1292 S   0  0  0  0  0  0  0  0  0  0  0  0
   -1.5525   -2.0704    0.4427 O   0  0  0  0  0  0  0  0  0  0  0  0
   -1.2742    0.2450    0.3062 N   0  0  0  0  0  0  0  0  0  0  0  0
   -3.1731    1.4864   -0.2699 N   0  0  0  0  0  0  0  0  0  0  0  0
   -3.9515    0.3872   -0.3657 N   0  0  0  0  0  0  0  0  0  0  0  0
    0.0440    0.1644    0.6379 N   0  0  0  0  0  0  0  0  0  0  0  0
    2.7373   -0.0186    1.0280 N   0  0  0  0  0  0  0  0  0  0  0  0
   -3.4197   -0.7677   -0.1334 C   0  0  0  0  0  0  0  0  0  0  0  0
   -1.9752   -0.9418    0.2385 C   0  0  0  0  0  0  0  0  0  0  0  0
   -1.8366    1.4907    0.0587 C   0  0  0  0  0  0  0  0  0  0  0  0
   -4.2574   -2.0110   -0.2312 C   0  0  0  0  0  0  0  0  0  0  0  0
    2.2900   -0.0727   -0.2371 C   0  0  0  0  0  0  0  0  0  0  0  0
    0.8272    0.0324   -0.3829 C   0  0  0  0  0  0  0  0  0  0  0  0
    3.0737   -0.2125   -1.3583 C   0  0  0  0  0  0  0  0  0  0  0  0
    4.4474   -0.3062   -1.1643 C   0  0  0  0  0  0  0  0  0  0  0  0
    4.9670   -0.2562    0.1244 C   0  0  0  0  0  0  0  0  0  0  0  0
    4.0777   -0.1127    1.1771 C   0  0  0  0  0  0  0  0  0  0  0  0
   -3.8398   -2.6757   -0.9924 H   0  0  0  0  0  0  0  0  0  0  0  0
   -5.2851   -1.7590   -0.5078 H   0  0  0  0  0  0  0  0  0  0  0  0
   -4.2672   -2.5234    0.7347 H   0  0  0  0  0  0  0  0  0  0  0  0
   -3.6537    2.3590   -0.4647 H   0  0  0  0  0  0  0  0  0  0  0  0
    0.4289   -0.0107   -1.4144 H   0  0  0  0  0  0  0  0  0  0  0  0
    2.6572   -0.2499   -2.3585 H   0  0  0  0  0  0  0  0  0  0  0  0
    5.1119   -0.4178   -2.0159 H   0  0  0  0  0  0  0  0  0  0  0  0
    6.0344   -0.3272    0.2993 H   0  0  0  0  0  0  0  0  0  0  0  0
    4.4323   -0.0683    2.2016 H   0  0  0  0  0  0  0  0  0  0  0  0
  1 10  2  0  0  0  0
  2  9  2  0  0  0  0
  3  6  1  0  0  0  0
  3  9  1  0  0  0  0
  3 10  1  0  0  0  0
  4  5  1  0  0  0  0
  4 10  1  0  0  0  0
  4 21  1  0  0  0  0
  5  8  2  0  0  0  0
  6 13  2  0  0  0  0
  7 12  1  0  0  0  0
  7 17  2  0  0  0  0
  8  9  1  0  0  0  0
  8 11  1  0  0  0  0
 11 18  1  0  0  0  0
 11 19  1  0  0  0  0
 11 20  1  0  0  0  0
 12 13  1  0  0  0  0
 12 14  2  0  0  0  0
 13 22  1  0  0  0  0
 14 15  1  0  0  0  0
 14 23  1  0  0  0  0
 15 16  2  0  0  0  0
 15 24  1  0  0  0  0
 16 17  1  0  0  0  0
 16 25  1  0  0  0  0
 17 26  1  0  0  0  0
M  END
> <PUBCHEM_COMPOUND_CID>
5342601

> <PUBCHEM_CONFORMER_RMSD>
0.6

> <PUBCHEM_CONFORMER_DIVERSEORDER>
1
6
3
4
5
2

> <PUBCHEM_MMFF94_PARTIAL_CHARGES>
23
1 -0.38
10 0.5
11 0.06
12 0.4
13 0.3
14 -0.15
15 -0.15
16 -0.15
17 0.16
2 -0.57
21 0.37
22 0.06
23 0.15
24 0.15
25 0.15
26 0.15
3 -0.06
4 -0.37
5 -0.51
6 -0.51
7 -0.62
8 0.39
9 0.63

> <PUBCHEM_EFFECTIVE_ROTOR_COUNT>
2

> <PUBCHEM_PHARMACOPHORE_FEATURES>
8
1 1 acceptor
1 2 acceptor
1 4 donor
1 5 acceptor
1 6 acceptor
1 7 acceptor
6 3 4 5 8 9 10 rings
6 7 12 14 15 16 17 rings

> <PUBCHEM_HEAVY_ATOM_COUNT>
17

> <PUBCHEM_ATOM_DEF_STEREO_COUNT>
0

> <PUBCHEM_ATOM_UDEF_STEREO_COUNT>
0

> <PUBCHEM_BOND_DEF_STEREO_COUNT>
1

> <PUBCHEM_BOND_UDEF_STEREO_COUNT>
0

> <PUBCHEM_ISOTOPIC_ATOM_COUNT>
0

> <PUBCHEM_COMPONENT_COUNT>
1

> <PUBCHEM_CACTVS_TAUTO_COUNT>
3

> <PUBCHEM_CONFORMER_ID>
0051858900000001

> <PUBCHEM_MMFF94_ENERGY>
56.0294

> <PUBCHEM_FEATURE_SELFOVERLAP>
40.61

> <PUBCHEM_SHAPE_FINGERPRINT>
11615757 297 15051730885203938682
12236239 1 17603303734781277369
14386348 63 17918277553946635518
15961568 22 18336824320952070748
16752209 62 18261103080448223115
17870717 6 18271258143893204214
19141452 34 17631734988843197903
1986462 14 18341897368020698556
200 152 17676205783893229586
20279233 1 17989490714717749966
20300324 65 18408045108455195077
20374829 77 18341328976723807199
20645477 70 16701742632184705918
20871999 31 18408040719457496237
21065201 7 18341331089847547906
21079973 296 18272930539823187028
21728266 224 18262502745833896610
22646028 1 17894628154223829482
2297311 6 18341624715033427596
23402539 116 18410567379739696053
23557571 272 18201726115174256629
23559900 14 18271527473303560806
2838139 119 15937514980623554437
3268164 11 18410284792261207781
474 4 16807025448948156300
573450 72 18188199919103031218
77492 1 17603303730618269888
81228 2 18340784645068661361
9709674 26 18411707569045605934

> <PUBCHEM_SHAPE_MULTIPOLES>
322.93
9.69
2.08
1
5.47
1.23
-0.06
-3.19
-0.83
-3
0.06
1.15
-0.08
0.19

> <PUBCHEM_SHAPE_SELFOVERLAP>
676.123

> <PUBCHEM_SHAPE_VOLUME>
184.3

> <PUBCHEM_COORDINATE_TYPE>
2
5
10

$$$$
