2868527
  -OEChem-09082001403D

 52 54  0     0  0  0  0  0  0999 V2000
    0.4026   -0.9504    1.3866 S   0  0  0  0  0  0  0  0  0  0  0  0
    6.1968    1.9691    0.1101 O   0  0  0  0  0  0  0  0  0  0  0  0
    1.2698    0.0763    1.9404 O   0  0  0  0  0  0  0  0  0  0  0  0
   -0.0368   -2.0535    2.2248 O   0  0  0  0  0  0  0  0  0  0  0  0
   -4.3104    1.9365   -0.7011 O   0  0  0  0  0  0  0  0  0  0  0  0
    4.3307   -0.1251   -0.3735 N   0  0  0  0  0  0  0  0  0  0  0  0
    1.1231   -1.5818   -0.0257 N   0  0  0  0  0  0  0  0  0  0  0  0
    3.9485   -1.4125   -0.9501 C   0  0  0  0  0  0  0  0  0  0  0  0
    4.7069    0.8274   -1.4274 C   0  0  0  0  0  0  0  0  0  0  0  0
    5.4394   -0.2878    0.5771 C   0  0  0  0  0  0  0  0  0  0  0  0
    2.7290   -1.2441   -1.8583 C   0  0  0  0  0  0  0  0  0  0  0  0
    5.1139    2.1584   -0.8016 C   0  0  0  0  0  0  0  0  0  0  0  0
    5.8281    1.0695    1.1561 C   0  0  0  0  0  0  0  0  0  0  0  0
    1.5226   -0.6793   -1.1150 C   0  0  0  0  0  0  0  0  0  0  0  0
   -1.0379   -0.1721    0.7478 C   0  0  0  0  0  0  0  0  0  0  0  0
   -2.1254   -0.8933    0.2285 C   0  0  0  0  0  0  0  0  0  0  0  0
   -3.2483   -0.1898   -0.2688 C   0  0  0  0  0  0  0  0  0  0  0  0
   -1.0572    1.2226    0.7764 C   0  0  0  0  0  0  0  0  0  0  0  0
   -3.2505    1.2142   -0.2321 C   0  0  0  0  0  0  0  0  0  0  0  0
   -2.1614    1.9144    0.2873 C   0  0  0  0  0  0  0  0  0  0  0  0
   -2.1232   -2.2972    0.1918 C   0  0  0  0  0  0  0  0  0  0  0  0
   -4.3357   -0.9109   -0.7881 C   0  0  0  0  0  0  0  0  0  0  0  0
   -3.2123   -2.9974   -0.3277 C   0  0  0  0  0  0  0  0  0  0  0  0
   -4.3164   -2.3056   -0.8167 C   0  0  0  0  0  0  0  0  0  0  0  0
   -4.9705    2.7905    0.2287 C   0  0  0  0  0  0  0  0  0  0  0  0
   -6.4252    2.9220   -0.1693 C   0  0  0  0  0  0  0  0  0  0  0  0
    4.7722   -1.8487   -1.5299 H   0  0  0  0  0  0  0  0  0  0  0  0
    3.7132   -2.1272   -0.1520 H   0  0  0  0  0  0  0  0  0  0  0  0
    3.8778    1.0508   -2.1038 H   0  0  0  0  0  0  0  0  0  0  0  0
    5.5412    0.4323   -2.0215 H   0  0  0  0  0  0  0  0  0  0  0  0
    6.3085   -0.7332    0.0756 H   0  0  0  0  0  0  0  0  0  0  0  0
    5.1428   -0.9514    1.3974 H   0  0  0  0  0  0  0  0  0  0  0  0
    2.9446   -0.6471   -2.7497 H   0  0  0  0  0  0  0  0  0  0  0  0
    2.4665   -2.2397   -2.2415 H   0  0  0  0  0  0  0  0  0  0  0  0
    4.2744    2.6337   -0.2792 H   0  0  0  0  0  0  0  0  0  0  0  0
    5.4529    2.8492   -1.5804 H   0  0  0  0  0  0  0  0  0  0  0  0
    6.6920    0.9584    1.8193 H   0  0  0  0  0  0  0  0  0  0  0  0
    5.0122    1.5068    1.7447 H   0  0  0  0  0  0  0  0  0  0  0  0
    1.7311    0.3259   -0.7371 H   0  0  0  0  0  0  0  0  0  0  0  0
    0.6832   -0.5996   -1.8148 H   0  0  0  0  0  0  0  0  0  0  0  0
    0.9152   -2.5515   -0.2942 H   0  0  0  0  0  0  0  0  0  0  0  0
   -0.2280    1.8056    1.1654 H   0  0  0  0  0  0  0  0  0  0  0  0
   -2.1540    3.0009    0.3067 H   0  0  0  0  0  0  0  0  0  0  0  0
   -1.2928   -2.9110    0.5153 H   0  0  0  0  0  0  0  0  0  0  0  0
   -5.2138   -0.4011   -1.1785 H   0  0  0  0  0  0  0  0  0  0  0  0
   -3.1955   -4.0831   -0.3587 H   0  0  0  0  0  0  0  0  0  0  0  0
   -5.1631   -2.8515   -1.2229 H   0  0  0  0  0  0  0  0  0  0  0  0
   -4.4919    3.7756    0.2115 H   0  0  0  0  0  0  0  0  0  0  0  0
   -4.9116    2.3856    1.2469 H   0  0  0  0  0  0  0  0  0  0  0  0
   -6.9139    1.9419   -0.1711 H   0  0  0  0  0  0  0  0  0  0  0  0
   -6.5128    3.3230   -1.1845 H   0  0  0  0  0  0  0  0  0  0  0  0
   -6.9609    3.5822    0.5184 H   0  0  0  0  0  0  0  0  0  0  0  0
  1  3  2  0  0  0  0
  1  4  2  0  0  0  0
  1  7  1  0  0  0  0
  1 15  1  0  0  0  0
  2 12  1  0  0  0  0
  2 13  1  0  0  0  0
  5 19  1  0  0  0  0
  5 25  1  0  0  0  0
  6  8  1  0  0  0  0
  6  9  1  0  0  0  0
  6 10  1  0  0  0  0
  7 14  1  0  0  0  0
  7 41  1  0  0  0  0
  8 11  1  0  0  0  0
  8 27  1  0  0  0  0
  8 28  1  0  0  0  0
  9 12  1  0  0  0  0
  9 29  1  0  0  0  0
  9 30  1  0  0  0  0
 10 13  1  0  0  0  0
 10 31  1  0  0  0  0
 10 32  1  0  0  0  0
 11 14  1  0  0  0  0
 11 33  1  0  0  0  0
 11 34  1  0  0  0  0
 12 35  1  0  0  0  0
 12 36  1  0  0  0  0
 13 37  1  0  0  0  0
 13 38  1  0  0  0  0
 14 39  1  0  0  0  0
 14 40  1  0  0  0  0
 15 16  1  0  0  0  0
 15 18  2  0  0  0  0
 16 17  1  0  0  0  0
 16 21  2  0  0  0  0
 17 19  1  0  0  0  0
 17 22  2  0  0  0  0
 18 20  1  0  0  0  0
 18 42  1  0  0  0  0
 19 20  2  0  0  0  0
 20 43  1  0  0  0  0
 21 23  1  0  0  0  0
 21 44  1  0  0  0  0
 22 24  1  0  0  0  0
 22 45  1  0  0  0  0
 23 24  2  0  0  0  0
 23 46  1  0  0  0  0
 24 47  1  0  0  0  0
 25 26  1  0  0  0  0
 25 48  1  0  0  0  0
 25 49  1  0  0  0  0
 26 50  1  0  0  0  0
 26 51  1  0  0  0  0
 26 52  1  0  0  0  0
M  END
> <PUBCHEM_COMPOUND_CID>
2868527

> <PUBCHEM_CONFORMER_RMSD>
1

> <PUBCHEM_CONFORMER_DIVERSEORDER>
1
24
41
64
65
69
7
80
53
55
23
49
14
4
74
26
68
47
42
44
29
22
34
48
81
51
2
70
30
25
50
78
37
82
56
62
57
67
8
32
33
20
76
59
35
27
63
38
16
45
5
75
52
39
60
46
79
36
18
40
21
13
66
28
83
11
31
58
15
43
54
3
61
71
73
12
6
72
77
17
9
19
10

> <PUBCHEM_MMFF94_PARTIAL_CHARGES>
29
1 1.45
10 0.27
12 0.28
13 0.28
14 0.36
15 -0.01
18 -0.15
19 0.08
2 -0.56
20 -0.15
21 -0.15
22 -0.15
23 -0.15
24 -0.15
25 0.28
3 -0.65
4 -0.65
41 0.42
42 0.15
43 0.15
44 0.15
45 0.15
46 0.15
47 0.15
5 -0.36
6 -0.81
7 -0.91
8 0.27
9 0.27

> <PUBCHEM_EFFECTIVE_ROTOR_COUNT>
9.2

> <PUBCHEM_PHARMACOPHORE_FEATURES>
9
1 2 acceptor
1 3 acceptor
1 4 acceptor
1 5 acceptor
1 6 cation
1 7 donor
6 15 16 17 18 19 20 rings
6 16 17 21 22 23 24 rings
6 2 6 9 10 12 13 rings

> <PUBCHEM_HEAVY_ATOM_COUNT>
26

> <PUBCHEM_ATOM_DEF_STEREO_COUNT>
0

> <PUBCHEM_ATOM_UDEF_STEREO_COUNT>
0

> <PUBCHEM_BOND_DEF_STEREO_COUNT>
0

> <PUBCHEM_BOND_UDEF_STEREO_COUNT>
0

> <PUBCHEM_ISOTOPIC_ATOM_COUNT>
0

> <PUBCHEM_COMPONENT_COUNT>
1

> <PUBCHEM_CACTVS_TAUTO_COUNT>
1

> <PUBCHEM_CONFORMER_ID>
002BC52F00000001

> <PUBCHEM_MMFF94_ENERGY>
56.151

> <PUBCHEM_FEATURE_SELFOVERLAP>
45.716

> <PUBCHEM_SHAPE_FINGERPRINT>
10928967 22 13038915378514123764
11961588 58 18339635655865580061
12107183 9 18118675522973778226
121448 382 18260551146985955851
12422481 6 15719946909047165108
12633257 1 16878782846484157356
12895836 83 18338797811084197861
12895837 130 18334305291749992413
13726171 33 18272094898191002809
13911987 19 16415479359159173804
14251758 9 14634857670372839374
14251764 38 18262242256299775684
14747281 78 17060064684126941129
14790565 3 17910120105788383265
14840074 17 13758087328190818816
15463212 79 18187644670189878419
17349148 13 17968104174254588126
17980427 23 18041001777748231508
1813 80 12823286871651406418
18222031 100 12679169484261877862
19489759 90 18334293214818556474
20511986 3 18114165445912979622
20715895 44 18339925905239332916
20775530 9 15983106406136787295
20871999 31 18342735205067318455
22393880 68 18271257040709231406
22950370 63 10952057758113925370
23557571 272 18272085024024265603
23559900 14 18058169415150864646
249057 3 18195530290359526166
341906 21 18335147531263891956
3472631 163 18336265656488969213
5283173 99 18413388730639421172
53917941 68 18259702285781439343
67856867 119 18337949000908366074
7808743 9 18337384955526936929
9981440 41 18334017224294083058

> <PUBCHEM_SHAPE_MULTIPOLES>
505.48
14.65
3.3
1.49
10.7
0.51
0.33
10.37
-2.83
-4.68
-0.26
1.34
-0.46
0.03

> <PUBCHEM_SHAPE_SELFOVERLAP>
1048.301

> <PUBCHEM_SHAPE_VOLUME>
289.1

> <PUBCHEM_COORDINATE_TYPE>
2
5
10

$$$$
