655363
  -OEChem-09082001263D

 54 58  0     1  0  0  0  0  0999 V2000
    2.6639    1.5054    1.0591 O   0  0  0  0  0  0  0  0  0  0  0  0
   -2.9197    0.2362    1.8467 O   0  0  0  0  0  0  0  0  0  0  0  0
   -4.1965   -3.7084   -0.2247 O   0  0  0  0  0  0  0  0  0  0  0  0
   -1.8259    4.9958   -1.7642 O   0  0  0  0  0  0  0  0  0  0  0  0
    1.9127    0.6935    3.1082 O   0  0  0  0  0  0  0  0  0  0  0  0
    0.2497   -2.2977   -0.6561 N   0  0  0  0  0  0  0  0  0  0  0  0
   -1.9986   -2.9867   -0.4083 N   0  0  0  0  0  0  0  0  0  0  0  0
   -3.6213   -1.6807    0.7335 N   0  0  0  0  0  0  0  0  0  0  0  0
   -0.3015    0.2154    0.8155 C   0  0  2  0  0  0  0  0  0  0  0  0
    1.0592   -0.1945    0.3698 C   0  0  0  0  0  0  0  0  0  0  0  0
   -1.3166   -0.8966    0.5316 C   0  0  0  0  0  0  0  0  0  0  0  0
    1.1865   -1.4599   -0.3814 C   0  0  0  0  0  0  0  0  0  0  0  0
   -1.0195   -2.0209   -0.1616 C   0  0  0  0  0  0  0  0  0  0  0  0
    2.2819    0.3448    0.4629 C   0  0  0  0  0  0  0  0  0  0  0  0
    2.5874   -1.5944   -0.7491 C   0  0  0  0  0  0  0  0  0  0  0  0
   -0.7064    1.4858    0.1298 C   0  0  0  0  0  0  0  0  0  0  0  0
    3.2569   -0.4909   -0.2207 C   0  0  0  0  0  0  0  0  0  0  0  0
   -2.6847   -0.7148    1.1014 C   0  0  0  0  0  0  0  0  0  0  0  0
   -3.3331   -2.8557    0.0095 C   0  0  0  0  0  0  0  0  0  0  0  0
    3.2195   -2.5920   -1.4659 C   0  0  0  0  0  0  0  0  0  0  0  0
    4.6216   -0.3600   -0.4107 C   0  0  0  0  0  0  0  0  0  0  0  0
   -0.9668    2.6238    0.8855 C   0  0  0  0  0  0  0  0  0  0  0  0
   -0.8183    1.5154   -1.2562 C   0  0  0  0  0  0  0  0  0  0  0  0
   -1.6182   -4.1914   -1.1544 C   0  0  0  0  0  0  0  0  0  0  0  0
    4.5946   -2.4606   -1.6577 C   0  0  0  0  0  0  0  0  0  0  0  0
    5.2896   -1.3549   -1.1351 C   0  0  0  0  0  0  0  0  0  0  0  0
   -4.9967   -1.5130    1.1939 C   0  0  0  0  0  0  0  0  0  0  0  0
   -1.3438    3.8056    0.2476 C   0  0  0  0  0  0  0  0  0  0  0  0
   -1.1952    2.6973   -1.8941 C   0  0  0  0  0  0  0  0  0  0  0  0
   -1.4579    3.8425   -1.1422 C   0  0  0  0  0  0  0  0  0  0  0  0
    2.4233    1.5654    2.4168 C   0  0  0  0  0  0  0  0  0  0  0  0
    2.8970    2.8825    2.9578 C   0  0  0  0  0  0  0  0  0  0  0  0
   -1.9232    4.9637   -3.1873 C   0  0  0  0  0  0  0  0  0  0  0  0
   -0.2784    0.3527    1.9035 H   0  0  0  0  0  0  0  0  0  0  0  0
    2.6801   -3.4431   -1.8645 H   0  0  0  0  0  0  0  0  0  0  0  0
    5.1693    0.4880   -0.0132 H   0  0  0  0  0  0  0  0  0  0  0  0
   -0.8804    2.6104    1.9684 H   0  0  0  0  0  0  0  0  0  0  0  0
   -0.6188    0.6372   -1.8640 H   0  0  0  0  0  0  0  0  0  0  0  0
   -2.4616   -4.8757   -1.2795 H   0  0  0  0  0  0  0  0  0  0  0  0
   -0.8292   -4.7201   -0.6097 H   0  0  0  0  0  0  0  0  0  0  0  0
   -1.2632   -3.9027   -2.1490 H   0  0  0  0  0  0  0  0  0  0  0  0
    5.1369   -3.2192   -2.2155 H   0  0  0  0  0  0  0  0  0  0  0  0
    6.3614   -1.2727   -1.2966 H   0  0  0  0  0  0  0  0  0  0  0  0
   -5.1768   -2.2281    2.0028 H   0  0  0  0  0  0  0  0  0  0  0  0
   -5.6879   -1.7342    0.3745 H   0  0  0  0  0  0  0  0  0  0  0  0
   -5.1857   -0.5002    1.5584 H   0  0  0  0  0  0  0  0  0  0  0  0
   -1.5468    4.6946    0.8386 H   0  0  0  0  0  0  0  0  0  0  0  0
   -1.2645    2.6561   -2.9758 H   0  0  0  0  0  0  0  0  0  0  0  0
    2.3644    3.6981    2.4621 H   0  0  0  0  0  0  0  0  0  0  0  0
    3.9752    2.9778    2.8070 H   0  0  0  0  0  0  0  0  0  0  0  0
    2.6873    2.9311    4.0302 H   0  0  0  0  0  0  0  0  0  0  0  0
   -2.2263    5.9641   -3.5133 H   0  0  0  0  0  0  0  0  0  0  0  0
   -2.7012    4.2691   -3.5218 H   0  0  0  0  0  0  0  0  0  0  0  0
   -0.9535    4.7561   -3.6522 H   0  0  0  0  0  0  0  0  0  0  0  0
  1 14  1  0  0  0  0
  1 31  1  0  0  0  0
  2 18  2  0  0  0  0
  3 19  2  0  0  0  0
  4 30  1  0  0  0  0
  4 33  1  0  0  0  0
  5 31  2  0  0  0  0
  6 12  2  0  0  0  0
  6 13  1  0  0  0  0
  7 13  1  0  0  0  0
  7 19  1  0  0  0  0
  7 24  1  0  0  0  0
  8 18  1  0  0  0  0
  8 19  1  0  0  0  0
  8 27  1  0  0  0  0
  9 10  1  0  0  0  0
  9 11  1  0  0  0  0
  9 16  1  0  0  0  0
  9 34  1  0  0  0  0
 10 12  1  0  0  0  0
 10 14  2  0  0  0  0
 11 13  2  0  0  0  0
 11 18  1  0  0  0  0
 12 15  1  0  0  0  0
 14 17  1  0  0  0  0
 15 17  1  0  0  0  0
 15 20  2  0  0  0  0
 16 22  2  0  0  0  0
 16 23  1  0  0  0  0
 17 21  2  0  0  0  0
 20 25  1  0  0  0  0
 20 35  1  0  0  0  0
 21 26  1  0  0  0  0
 21 36  1  0  0  0  0
 22 28  1  0  0  0  0
 22 37  1  0  0  0  0
 23 29  2  0  0  0  0
 23 38  1  0  0  0  0
 24 39  1  0  0  0  0
 24 40  1  0  0  0  0
 24 41  1  0  0  0  0
 25 26  2  0  0  0  0
 25 42  1  0  0  0  0
 26 43  1  0  0  0  0
 27 44  1  0  0  0  0
 27 45  1  0  0  0  0
 27 46  1  0  0  0  0
 28 30  2  0  0  0  0
 28 47  1  0  0  0  0
 29 30  1  0  0  0  0
 29 48  1  0  0  0  0
 31 32  1  0  0  0  0
 32 49  1  0  0  0  0
 32 50  1  0  0  0  0
 32 51  1  0  0  0  0
 33 52  1  0  0  0  0
 33 53  1  0  0  0  0
 33 54  1  0  0  0  0
M  END
> <PUBCHEM_COMPOUND_CID>
655363

> <PUBCHEM_CONFORMER_RMSD>
0.8

> <PUBCHEM_CONFORMER_DIVERSEORDER>
3
1
4
2

> <PUBCHEM_MMFF94_PARTIAL_CHARGES>
41
1 -0.23
10 -0.12
11 -0.12
12 0.35
13 0.28
14 0.05
15 0.09
16 -0.14
17 0.03
18 0.62
19 0.69
2 -0.57
20 -0.15
21 -0.15
22 -0.15
23 -0.15
24 0.3
25 -0.15
26 -0.15
27 0.3
28 -0.15
29 -0.15
3 -0.57
30 0.08
31 0.66
32 0.06
33 0.28
35 0.15
36 0.15
37 0.15
38 0.15
4 -0.36
42 0.15
43 0.15
47 0.15
48 0.15
5 -0.57
6 -0.62
7 -0.47
8 -0.42
9 0.42

> <PUBCHEM_EFFECTIVE_ROTOR_COUNT>
4.2

> <PUBCHEM_PHARMACOPHORE_FEATURES>
10
1 2 acceptor
1 3 acceptor
1 4 acceptor
1 5 acceptor
1 6 acceptor
5 10 12 14 15 17 rings
6 15 17 20 21 25 26 rings
6 16 22 23 28 29 30 rings
6 6 9 10 11 12 13 rings
6 7 8 11 13 18 19 rings

> <PUBCHEM_HEAVY_ATOM_COUNT>
33

> <PUBCHEM_ATOM_DEF_STEREO_COUNT>
0

> <PUBCHEM_ATOM_UDEF_STEREO_COUNT>
1

> <PUBCHEM_BOND_DEF_STEREO_COUNT>
0

> <PUBCHEM_BOND_UDEF_STEREO_COUNT>
0

> <PUBCHEM_ISOTOPIC_ATOM_COUNT>
0

> <PUBCHEM_COMPONENT_COUNT>
1

> <PUBCHEM_CACTVS_TAUTO_COUNT>
1

> <PUBCHEM_CONFORMER_ID>
000A000300000003

> <PUBCHEM_MMFF94_ENERGY>
106.1874

> <PUBCHEM_FEATURE_SELFOVERLAP>
50.963

> <PUBCHEM_SHAPE_FINGERPRINT>
10165383 225 17833852472541530824
10290309 65 18128261087036480318
105312 117 17683254564329658388
11297750 10 18342452647569029458
11513181 2 16985474046852292598
11607047 191 16969358182838719784
12160290 23 17823956988498472677
12403259 226 18272377464269072418
12788726 201 17967813816910781051
13140716 1 17986388000326282738
13149001 5 17984969415524936296
133893 2 16959557531319556401
13692114 37 17976513059106682029
14022347 108 18113901623252018243
140371 6 17620469550864803811
14415360 78 18055636109889756560
14955137 171 17759547828923377041
15160629 57 16817114713067504652
15219462 58 17973404838223529018
15324884 4 18410289246505972035
15420108 30 16683425145642974624
15775530 1 18199728333075400640
1813 80 18044930409998184323
19319366 153 16688521876212403928
20600515 1 17532928527031261000
20691752 17 18264197192163420770
20739085 24 17981320411241663530
20775438 99 17626057058682372607
21033648 29 18201438108295808763
21049683 271 18127707134943578246
22149856 69 17264146437803581379
22907989 373 18261965037292446036
23559900 14 17845938553641294978
238 59 17109588676074109677
3380486 145 18047442777019495975
350125 39 17915180337661335896
376196 1 16688716738857719424
4409770 3 18195252113469078462
5080951 261 17774139212024659438
59554788 62 17912623989721075978
6287921 2 17768251567421873154

> <PUBCHEM_SHAPE_MULTIPOLES>
634.83
7.81
6.37
2.46
6.41
2.44
0.57
-4.17
-1.43
-7.94
-3.37
0.35
3.3
4.87

> <PUBCHEM_SHAPE_SELFOVERLAP>
1424.523

> <PUBCHEM_SHAPE_VOLUME>
333.8

> <PUBCHEM_COORDINATE_TYPE>
2
5
10

$$$$
