2999664
  -OEChem-09082001313D

 45 47  0     1  0  0  0  0  0999 V2000
    0.4263    1.2010    1.4144 Cl  0  0  0  0  0  0  0  0  0  0  0  0
   -1.5027   -2.1706    0.5169 O   0  0  0  0  0  0  0  0  0  0  0  0
   -2.4521    3.9265    0.1616 O   0  0  0  0  0  0  0  0  0  0  0  0
   -3.5440   -2.1508   -0.5750 O   0  0  0  0  0  0  0  0  0  0  0  0
   -1.9771    2.0118   -1.0010 N   0  0  0  0  0  0  0  0  0  0  0  0
    1.7700    0.1321   -0.6512 N   0  0  0  0  0  0  0  0  0  0  0  0
   -2.8860    1.9071    1.1540 N   0  0  0  0  0  0  0  0  0  0  0  0
    1.6914   -0.3619   -1.8985 N   0  0  0  0  0  0  0  0  0  0  0  0
   -1.8043    0.5624   -1.0878 C   0  0  1  0  0  0  0  0  0  0  0  0
   -0.3495    0.2984   -1.1287 C   0  0  0  0  0  0  0  0  0  0  0  0
   -2.4706   -0.1391    0.0720 C   0  0  0  0  0  0  0  0  0  0  0  0
    0.3910   -0.2571   -2.1848 C   0  0  0  0  0  0  0  0  0  0  0  0
   -2.9509    0.5284    1.1379 C   0  0  0  0  0  0  0  0  0  0  0  0
    0.5719    0.5421   -0.1442 C   0  0  0  0  0  0  0  0  0  0  0  0
   -2.4324    2.6951    0.1106 C   0  0  0  0  0  0  0  0  0  0  0  0
   -2.5951   -1.6014   -0.0471 C   0  0  0  0  0  0  0  0  0  0  0  0
   -0.1007   -0.7079   -3.4987 C   0  0  0  0  0  0  0  0  0  0  0  0
   -3.5765   -0.0670    2.3680 C   0  0  0  0  0  0  0  0  0  0  0  0
    3.0137    0.1781   -0.0176 C   0  0  0  0  0  0  0  0  0  0  0  0
    3.0811    0.0685    1.3644 C   0  0  0  0  0  0  0  0  0  0  0  0
    4.1638    0.3327   -0.7791 C   0  0  0  0  0  0  0  0  0  0  0  0
   -1.4764   -3.6011    0.4789 C   0  0  0  0  0  0  0  0  0  0  0  0
    4.3231    0.1141    1.9974 C   0  0  0  0  0  0  0  0  0  0  0  0
    5.4059    0.3784   -0.1460 C   0  0  0  0  0  0  0  0  0  0  0  0
    5.4856    0.2690    1.2423 C   0  0  0  0  0  0  0  0  0  0  0  0
   -0.2055   -4.0888    1.1414 C   0  0  0  0  0  0  0  0  0  0  0  0
   -2.2917    0.2632   -2.0226 H   0  0  0  0  0  0  0  0  0  0  0  0
   -1.6753    2.5672   -1.7964 H   0  0  0  0  0  0  0  0  0  0  0  0
   -3.2384    2.3804    1.9816 H   0  0  0  0  0  0  0  0  0  0  0  0
   -0.8414   -1.5052   -3.3780 H   0  0  0  0  0  0  0  0  0  0  0  0
   -0.5720    0.1206   -4.0376 H   0  0  0  0  0  0  0  0  0  0  0  0
    0.7083   -1.0966   -4.1262 H   0  0  0  0  0  0  0  0  0  0  0  0
   -3.6115   -1.1599    2.3361 H   0  0  0  0  0  0  0  0  0  0  0  0
   -4.6045    0.2925    2.4843 H   0  0  0  0  0  0  0  0  0  0  0  0
   -3.0069    0.2171    3.2594 H   0  0  0  0  0  0  0  0  0  0  0  0
    2.2577   -0.2247    2.0023 H   0  0  0  0  0  0  0  0  0  0  0  0
    4.1343    0.4322   -1.8609 H   0  0  0  0  0  0  0  0  0  0  0  0
   -2.3478   -3.9969    1.0126 H   0  0  0  0  0  0  0  0  0  0  0  0
   -1.5034   -3.9388   -0.5632 H   0  0  0  0  0  0  0  0  0  0  0  0
    4.3902   -0.0096    3.0746 H   0  0  0  0  0  0  0  0  0  0  0  0
    6.3112    0.4997   -0.7336 H   0  0  0  0  0  0  0  0  0  0  0  0
    6.4534    0.2960    1.7345 H   0  0  0  0  0  0  0  0  0  0  0  0
   -0.1510   -5.1809    1.1281 H   0  0  0  0  0  0  0  0  0  0  0  0
    0.6744   -3.6836    0.6304 H   0  0  0  0  0  0  0  0  0  0  0  0
   -0.1559   -3.7442    2.1796 H   0  0  0  0  0  0  0  0  0  0  0  0
  1 14  1  0  0  0  0
  2 16  1  0  0  0  0
  2 22  1  0  0  0  0
  3 15  2  0  0  0  0
  4 16  2  0  0  0  0
  5  9  1  0  0  0  0
  5 15  1  0  0  0  0
  5 28  1  0  0  0  0
  6  8  1  0  0  0  0
  6 14  1  0  0  0  0
  6 19  1  0  0  0  0
  7 13  1  0  0  0  0
  7 15  1  0  0  0  0
  7 29  1  0  0  0  0
  8 12  2  0  0  0  0
  9 10  1  0  0  0  0
  9 11  1  0  0  0  0
  9 27  1  0  0  0  0
 10 12  1  0  0  0  0
 10 14  2  0  0  0  0
 11 13  2  0  0  0  0
 11 16  1  0  0  0  0
 12 17  1  0  0  0  0
 13 18  1  0  0  0  0
 17 30  1  0  0  0  0
 17 31  1  0  0  0  0
 17 32  1  0  0  0  0
 18 33  1  0  0  0  0
 18 34  1  0  0  0  0
 18 35  1  0  0  0  0
 19 20  2  0  0  0  0
 19 21  1  0  0  0  0
 20 23  1  0  0  0  0
 20 36  1  0  0  0  0
 21 24  2  0  0  0  0
 21 37  1  0  0  0  0
 22 26  1  0  0  0  0
 22 38  1  0  0  0  0
 22 39  1  0  0  0  0
 23 25  2  0  0  0  0
 23 40  1  0  0  0  0
 24 25  1  0  0  0  0
 24 41  1  0  0  0  0
 25 42  1  0  0  0  0
 26 43  1  0  0  0  0
 26 44  1  0  0  0  0
 26 45  1  0  0  0  0
M  END
> <PUBCHEM_COMPOUND_CID>
2999664

> <PUBCHEM_CONFORMER_RMSD>
0.8

> <PUBCHEM_CONFORMER_DIVERSEORDER>
1
30
35
12
22
33
24
6
29
13
27
34
19
31
14
8
26
7
11
28
3
17
2
18
25
4
32
16
9
23
20
10
15
21
5

> <PUBCHEM_MMFF94_PARTIAL_CHARGES>
32
1 -0.12
10 -0.18
11 -0.12
12 0.11
13 -0.03
14 -0.03
15 0.69
16 0.71
17 0.18
18 0.14
19 -0.02
2 -0.43
20 -0.15
21 -0.15
22 0.28
23 -0.15
24 -0.15
25 -0.15
28 0.37
29 0.37
3 -0.57
36 0.15
37 0.15
4 -0.57
40 0.15
41 0.15
42 0.15
5 -0.73
6 0.59
7 -0.54
8 -0.71
9 0.62

> <PUBCHEM_EFFECTIVE_ROTOR_COUNT>
5.6

> <PUBCHEM_PHARMACOPHORE_FEATURES>
8
1 3 acceptor
1 4 acceptor
1 5 donor
1 7 donor
1 8 acceptor
5 6 8 10 12 14 rings
6 19 20 21 23 24 25 rings
6 5 7 9 11 13 15 rings

> <PUBCHEM_HEAVY_ATOM_COUNT>
26

> <PUBCHEM_ATOM_DEF_STEREO_COUNT>
0

> <PUBCHEM_ATOM_UDEF_STEREO_COUNT>
1

> <PUBCHEM_BOND_DEF_STEREO_COUNT>
0

> <PUBCHEM_BOND_UDEF_STEREO_COUNT>
0

> <PUBCHEM_ISOTOPIC_ATOM_COUNT>
0

> <PUBCHEM_COMPONENT_COUNT>
1

> <PUBCHEM_CACTVS_TAUTO_COUNT>
5

> <PUBCHEM_CONFORMER_ID>
002DC57000000001

> <PUBCHEM_MMFF94_ENERGY>
71.054

> <PUBCHEM_FEATURE_SELFOVERLAP>
40.639

> <PUBCHEM_SHAPE_FINGERPRINT>
10366900 7 18272081760076006182
107951 10 18270679753521543872
11552529 35 18263071284030516650
11582403 64 17770755958399064893
12539773 59 17388783493111653817
12633257 1 18270693063730871721
12788726 201 18262805188693051646
12930653 34 18263932029524799361
13009979 54 17824271624870397586
13583140 156 18200294573084384496
14289901 80 18408042901311529288
14840074 17 17240208746304201926
14856354 85 18338239392416037694
18219364 16 16702016500231093636
20600515 1 18197229242108821003
20602899 9 17680951263125705615
23419403 2 17628330961062406665
23493267 7 18271244915826494184
27216 239 17561360690618419241
3380486 77 17969794166782128255
35225 105 18129356311405420027
5265222 85 18048350828075992358
602551 16 18409166649682479930
81228 2 18055663774348271319
9981440 41 17202471196134651848

> <PUBCHEM_SHAPE_MULTIPOLES>
499.41
8.38
3.34
2.38
12.06
1.95
1.35
-1.56
-3.95
-4.6
-1.09
0.1
0.3
-0.08

> <PUBCHEM_SHAPE_SELFOVERLAP>
1071.004

> <PUBCHEM_SHAPE_VOLUME>
276.3

> <PUBCHEM_COORDINATE_TYPE>
2
5
10

$$$$
