5310853
  -OEChem-09082001333D

 42 43  0     1  0  0  0  0  0999 V2000
    0.9888   -2.2138    0.1259 O   0  0  0  0  0  0  0  0  0  0  0  0
    2.2926    3.8147    0.4282 O   0  0  0  0  0  0  0  0  0  0  0  0
    2.8689   -2.1527   -1.2236 O   0  0  0  0  0  0  0  0  0  0  0  0
    1.5517    2.0993   -0.8973 N   0  0  0  0  0  0  0  0  0  0  0  0
    2.7181    1.6604    1.0853 N   0  0  0  0  0  0  0  0  0  0  0  0
    1.2716    0.6896   -1.1382 C   0  0  1  0  0  0  0  0  0  0  0  0
    2.0305   -0.1939   -0.1852 C   0  0  0  0  0  0  0  0  0  0  0  0
   -0.2098    0.5070   -1.0324 C   0  0  0  0  0  0  0  0  0  0  0  0
    2.6894    0.2953    0.8818 C   0  0  0  0  0  0  0  0  0  0  0  0
    2.1869    2.6039    0.2227 C   0  0  0  0  0  0  0  0  0  0  0  0
   -0.9364    0.6737    0.0892 C   0  0  0  0  0  0  0  0  0  0  0  0
   -0.8787    0.0885   -2.3143 C   0  0  0  0  0  0  0  0  0  0  0  0
    2.0363   -1.6311   -0.5056 C   0  0  0  0  0  0  0  0  0  0  0  0
    3.4246   -0.4946    1.9276 C   0  0  0  0  0  0  0  0  0  0  0  0
   -2.3873    0.4991    0.2109 C   0  0  0  0  0  0  0  0  0  0  0  0
   -3.2296    1.5791   -0.0204 C   0  0  0  0  0  0  0  0  0  0  0  0
   -2.9019   -0.7441    0.5553 C   0  0  0  0  0  0  0  0  0  0  0  0
    0.8589   -3.6229   -0.0891 C   0  0  0  0  0  0  0  0  0  0  0  0
   -4.6098    1.4132    0.0948 C   0  0  0  0  0  0  0  0  0  0  0  0
   -4.2821   -0.9103    0.6703 C   0  0  0  0  0  0  0  0  0  0  0  0
   -5.1359    0.1684    0.4401 C   0  0  0  0  0  0  0  0  0  0  0  0
   -0.3468   -4.1290    0.6739 C   0  0  0  0  0  0  0  0  0  0  0  0
    1.6207    0.4965   -2.1600 H   0  0  0  0  0  0  0  0  0  0  0  0
    1.1894    2.7709   -1.5680 H   0  0  0  0  0  0  0  0  0  0  0  0
    3.2037    1.9987    1.9117 H   0  0  0  0  0  0  0  0  0  0  0  0
   -0.4473    0.9712    1.0138 H   0  0  0  0  0  0  0  0  0  0  0  0
   -0.4552   -0.8605   -2.6617 H   0  0  0  0  0  0  0  0  0  0  0  0
   -1.9600   -0.0520   -2.2456 H   0  0  0  0  0  0  0  0  0  0  0  0
   -0.7033    0.8439   -3.0883 H   0  0  0  0  0  0  0  0  0  0  0  0
    4.4813   -0.2071    1.9484 H   0  0  0  0  0  0  0  0  0  0  0  0
    3.3804   -1.5731    1.7503 H   0  0  0  0  0  0  0  0  0  0  0  0
    2.9952   -0.3070    2.9177 H   0  0  0  0  0  0  0  0  0  0  0  0
   -2.8326    2.5544   -0.2901 H   0  0  0  0  0  0  0  0  0  0  0  0
   -2.2475   -1.5894    0.7438 H   0  0  0  0  0  0  0  0  0  0  0  0
    0.7327   -3.8220   -1.1592 H   0  0  0  0  0  0  0  0  0  0  0  0
    1.7618   -4.1287    0.2712 H   0  0  0  0  0  0  0  0  0  0  0  0
   -5.2747    2.2530   -0.0844 H   0  0  0  0  0  0  0  0  0  0  0  0
   -4.6917   -1.8791    0.9406 H   0  0  0  0  0  0  0  0  0  0  0  0
   -6.2105    0.0391    0.5301 H   0  0  0  0  0  0  0  0  0  0  0  0
   -0.4382   -5.2149    0.5814 H   0  0  0  0  0  0  0  0  0  0  0  0
   -0.2745   -3.8668    1.7343 H   0  0  0  0  0  0  0  0  0  0  0  0
   -1.2630   -3.6705    0.2906 H   0  0  0  0  0  0  0  0  0  0  0  0
  1 13  1  0  0  0  0
  1 18  1  0  0  0  0
  2 10  2  0  0  0  0
  3 13  2  0  0  0  0
  4  6  1  0  0  0  0
  4 10  1  0  0  0  0
  4 24  1  0  0  0  0
  5  9  1  0  0  0  0
  5 10  1  0  0  0  0
  5 25  1  0  0  0  0
  6  7  1  0  0  0  0
  6  8  1  0  0  0  0
  6 23  1  0  0  0  0
  7  9  2  0  0  0  0
  7 13  1  0  0  0  0
  8 11  2  0  0  0  0
  8 12  1  0  0  0  0
  9 14  1  0  0  0  0
 11 15  1  0  0  0  0
 11 26  1  0  0  0  0
 12 27  1  0  0  0  0
 12 28  1  0  0  0  0
 12 29  1  0  0  0  0
 14 30  1  0  0  0  0
 14 31  1  0  0  0  0
 14 32  1  0  0  0  0
 15 16  2  0  0  0  0
 15 17  1  0  0  0  0
 16 19  1  0  0  0  0
 16 33  1  0  0  0  0
 17 20  2  0  0  0  0
 17 34  1  0  0  0  0
 18 22  1  0  0  0  0
 18 35  1  0  0  0  0
 18 36  1  0  0  0  0
 19 21  2  0  0  0  0
 19 37  1  0  0  0  0
 20 21  1  0  0  0  0
 20 38  1  0  0  0  0
 21 39  1  0  0  0  0
 22 40  1  0  0  0  0
 22 41  1  0  0  0  0
 22 42  1  0  0  0  0
M  END
> <PUBCHEM_COMPOUND_CID>
5310853

> <PUBCHEM_CONFORMER_RMSD>
0.8

> <PUBCHEM_CONFORMER_DIVERSEORDER>
5
4
27
18
20
6
23
7
21
3
22
16
19
25
1
13
17
26
24
14
2
12
15
9
10
8
11

> <PUBCHEM_MMFF94_PARTIAL_CHARGES>
29
1 -0.43
10 0.69
11 -0.18
12 0.14
13 0.71
14 0.14
15 0.03
16 -0.15
17 -0.15
18 0.28
19 -0.15
2 -0.57
20 -0.15
21 -0.15
24 0.37
25 0.37
26 0.15
3 -0.57
33 0.15
34 0.15
37 0.15
38 0.15
39 0.15
4 -0.73
5 -0.54
6 0.58
7 -0.12
8 -0.28
9 -0.03

> <PUBCHEM_EFFECTIVE_ROTOR_COUNT>
5.6

> <PUBCHEM_PHARMACOPHORE_FEATURES>
7
1 12 hydrophobe
1 2 acceptor
1 3 acceptor
1 4 donor
1 5 donor
6 15 16 17 19 20 21 rings
6 4 5 6 7 9 10 rings

> <PUBCHEM_HEAVY_ATOM_COUNT>
22

> <PUBCHEM_ATOM_DEF_STEREO_COUNT>
0

> <PUBCHEM_ATOM_UDEF_STEREO_COUNT>
1

> <PUBCHEM_BOND_DEF_STEREO_COUNT>
1

> <PUBCHEM_BOND_UDEF_STEREO_COUNT>
0

> <PUBCHEM_ISOTOPIC_ATOM_COUNT>
0

> <PUBCHEM_COMPONENT_COUNT>
1

> <PUBCHEM_CACTVS_TAUTO_COUNT>
5

> <PUBCHEM_CONFORMER_ID>
0051098500000005

> <PUBCHEM_MMFF94_ENERGY>
54.3009

> <PUBCHEM_FEATURE_SELFOVERLAP>
35.563

> <PUBCHEM_SHAPE_FINGERPRINT>
10006869 2 17188394509699750786
10064457 181 18338234993593923430
11370993 70 18409726300821404099
114674 6 18262242101702214459
12035758 1 18411974759567576602
12506688 2 17975981955491735239
12633257 1 18335691758658363075
13140716 1 18335420218241960963
13533116 47 18339368453513612561
13583140 156 18340481163307241165
14178342 30 18264766567382070291
14289901 80 18273216421964046105
14787075 74 17771344463993115265
14955137 171 18341892992172210728
15338160 23 17476901920165072272
15422964 175 18048872996691801894
20157964 124 18411409597827232485
21033648 29 17273396293059054968
21756936 100 17696467760802576448
2255824 54 18410020909338406055
23559900 14 18410578340702151877
49207404 50 18337679723327013729
495365 180 18409163325140454693
5104073 3 18334585663769207081
6438718 38 17483691369832517591
6443956 14 18193281797195255319
7097593 13 18195535779369350073
7364860 26 18412551985184849501
7808743 9 17762060247559032616
8272917 22 18342182158886572777
9709674 26 18408892849712178323

> <PUBCHEM_SHAPE_MULTIPOLES>
425.18
7.57
3.98
1.41
9.64
2.5
-0.37
-1.85
2.61
-3.06
0.5
-0.8
0.01
0.72

> <PUBCHEM_SHAPE_SELFOVERLAP>
894.316

> <PUBCHEM_SHAPE_VOLUME>
239

> <PUBCHEM_COORDINATE_TYPE>
2
5
10

$$$$
