667171
  -OEChem-09082001253D

 47 49  0     0  0  0  0  0  0999 V2000
    3.3788   -0.8362    3.0085 Cl  0  0  0  0  0  0  0  0  0  0  0  0
   -0.8939   -2.7316   -0.3418 S   0  0  0  0  0  0  0  0  0  0  0  0
    0.8065   -1.4346    1.6501 S   0  0  0  0  0  0  0  0  0  0  0  0
   -3.7377   -1.3380   -0.0149 O   0  0  0  0  0  0  0  0  0  0  0  0
    2.5876    1.2069   -0.9151 O   0  0  0  0  0  0  0  0  0  0  0  0
    1.1237   -0.0816   -2.1220 O   0  0  0  0  0  0  0  0  0  0  0  0
   -0.8014   -3.7455   -1.3751 O   0  0  0  0  0  0  0  0  0  0  0  0
   -1.8012   -2.9031    0.7767 O   0  0  0  0  0  0  0  0  0  0  0  0
   -0.7047    3.2033    0.4983 N   0  0  0  0  0  0  0  0  0  0  0  0
   -1.1321   -1.2109   -1.0491 N   0  0  0  0  0  0  0  0  0  0  0  0
   -0.9971    1.1047   -0.1999 C   0  0  0  0  0  0  0  0  0  0  0  0
   -1.6097    2.1663    0.4697 C   0  0  0  0  0  0  0  0  0  0  0  0
    0.3054    1.5411   -0.5711 C   0  0  0  0  0  0  0  0  0  0  0  0
    0.4557    2.8350   -0.1282 C   0  0  0  0  0  0  0  0  0  0  0  0
   -1.7161   -0.0951   -0.3696 C   0  0  0  0  0  0  0  0  0  0  0  0
   -2.9103    2.0875    0.9800 C   0  0  0  0  0  0  0  0  0  0  0  0
   -3.0180   -0.1882    0.1354 C   0  0  0  0  0  0  0  0  0  0  0  0
   -0.9479    4.4977    1.1017 C   0  0  0  0  0  0  0  0  0  0  0  0
    1.6058    3.7578   -0.2457 C   0  0  0  0  0  0  0  0  0  0  0  0
   -3.6040    0.8875    0.7995 C   0  0  0  0  0  0  0  0  0  0  0  0
    1.3195    0.8087   -1.2782 C   0  0  0  0  0  0  0  0  0  0  0  0
    0.7288   -2.5126    0.3279 C   0  0  0  0  0  0  0  0  0  0  0  0
    1.9518   -3.0337   -0.0024 C   0  0  0  0  0  0  0  0  0  0  0  0
    3.6846    0.5462   -1.5564 C   0  0  0  0  0  0  0  0  0  0  0  0
   -4.5370   -1.4507   -1.1894 C   0  0  0  0  0  0  0  0  0  0  0  0
    2.9827   -2.5394    0.8477 C   0  0  0  0  0  0  0  0  0  0  0  0
    2.4980   -1.6605    1.7912 C   0  0  0  0  0  0  0  0  0  0  0  0
    4.9823    1.1190   -1.0277 C   0  0  0  0  0  0  0  0  0  0  0  0
   -3.3829    2.9158    1.4959 H   0  0  0  0  0  0  0  0  0  0  0  0
   -0.0835    4.7707    1.7129 H   0  0  0  0  0  0  0  0  0  0  0  0
   -1.1030    5.2236    0.2995 H   0  0  0  0  0  0  0  0  0  0  0  0
   -1.8263    4.4639    1.7477 H   0  0  0  0  0  0  0  0  0  0  0  0
    2.3386    3.5584    0.5429 H   0  0  0  0  0  0  0  0  0  0  0  0
    2.1013    3.6519   -1.2166 H   0  0  0  0  0  0  0  0  0  0  0  0
    1.3150    4.8101   -0.1760 H   0  0  0  0  0  0  0  0  0  0  0  0
   -0.5117   -0.9593   -1.8271 H   0  0  0  0  0  0  0  0  0  0  0  0
   -4.6165    0.8009    1.1869 H   0  0  0  0  0  0  0  0  0  0  0  0
    2.1106   -3.7334   -0.8127 H   0  0  0  0  0  0  0  0  0  0  0  0
    3.6387   -0.5273   -1.3492 H   0  0  0  0  0  0  0  0  0  0  0  0
    3.6222    0.7092   -2.6379 H   0  0  0  0  0  0  0  0  0  0  0  0
   -5.0268   -2.4281   -1.1774 H   0  0  0  0  0  0  0  0  0  0  0  0
   -3.9178   -1.3820   -2.0893 H   0  0  0  0  0  0  0  0  0  0  0  0
   -5.3077   -0.6736   -1.2040 H   0  0  0  0  0  0  0  0  0  0  0  0
    4.0258   -2.8176    0.7652 H   0  0  0  0  0  0  0  0  0  0  0  0
    5.8434    0.6390   -1.5007 H   0  0  0  0  0  0  0  0  0  0  0  0
    5.0313    2.1971   -1.2127 H   0  0  0  0  0  0  0  0  0  0  0  0
    5.0503    0.9792    0.0563 H   0  0  0  0  0  0  0  0  0  0  0  0
  1 27  1  0  0  0  0
  2  7  2  0  0  0  0
  2  8  2  0  0  0  0
  2 10  1  0  0  0  0
  2 22  1  0  0  0  0
  3 22  1  0  0  0  0
  3 27  1  0  0  0  0
  4 17  1  0  0  0  0
  4 25  1  0  0  0  0
  5 21  1  0  0  0  0
  5 24  1  0  0  0  0
  6 21  2  0  0  0  0
  9 12  1  0  0  0  0
  9 14  1  0  0  0  0
  9 18  1  0  0  0  0
 10 15  1  0  0  0  0
 10 36  1  0  0  0  0
 11 12  2  0  0  0  0
 11 13  1  0  0  0  0
 11 15  1  0  0  0  0
 12 16  1  0  0  0  0
 13 14  2  0  0  0  0
 13 21  1  0  0  0  0
 14 19  1  0  0  0  0
 15 17  2  0  0  0  0
 16 20  2  0  0  0  0
 16 29  1  0  0  0  0
 17 20  1  0  0  0  0
 18 30  1  0  0  0  0
 18 31  1  0  0  0  0
 18 32  1  0  0  0  0
 19 33  1  0  0  0  0
 19 34  1  0  0  0  0
 19 35  1  0  0  0  0
 20 37  1  0  0  0  0
 22 23  2  0  0  0  0
 23 26  1  0  0  0  0
 23 38  1  0  0  0  0
 24 28  1  0  0  0  0
 24 39  1  0  0  0  0
 24 40  1  0  0  0  0
 25 41  1  0  0  0  0
 25 42  1  0  0  0  0
 25 43  1  0  0  0  0
 26 27  2  0  0  0  0
 26 44  1  0  0  0  0
 28 45  1  0  0  0  0
 28 46  1  0  0  0  0
 28 47  1  0  0  0  0
M  END
> <PUBCHEM_COMPOUND_CID>
667171

> <PUBCHEM_CONFORMER_RMSD>
0.8

> <PUBCHEM_CONFORMER_DIVERSEORDER>
1
27
49
42
41
45
15
59
34
54
28
43
24
51
6
32
35
14
36
25
47
8
10
46
20
5
17
44
37
12
52
19
40
50
22
3
26
53
16
21
7
38
13
11
9
33
48
56
18
39
29
4
2
31
58
23
30
57
55

> <PUBCHEM_MMFF94_PARTIAL_CHARGES>
31
1 -0.12
10 -0.76
12 -0.15
13 -0.09
14 -0.33
15 0.2
16 -0.15
17 0.08
18 0.26
19 0.18
2 1.5
20 -0.15
21 0.81
22 -0.02
23 -0.15
24 0.28
25 0.28
26 -0.15
27 0.16
29 0.15
3 -0.08
36 0.42
37 0.15
38 0.15
4 -0.36
44 0.15
5 -0.43
6 -0.57
7 -0.65
8 -0.65
9 0.05

> <PUBCHEM_EFFECTIVE_ROTOR_COUNT>
7

> <PUBCHEM_PHARMACOPHORE_FEATURES>
9
1 10 donor
1 4 acceptor
1 6 acceptor
1 7 acceptor
1 8 acceptor
1 9 cation
5 3 22 23 26 27 rings
5 9 11 12 13 14 rings
6 11 12 15 16 17 20 rings

> <PUBCHEM_HEAVY_ATOM_COUNT>
28

> <PUBCHEM_ATOM_DEF_STEREO_COUNT>
0

> <PUBCHEM_ATOM_UDEF_STEREO_COUNT>
0

> <PUBCHEM_BOND_DEF_STEREO_COUNT>
0

> <PUBCHEM_BOND_UDEF_STEREO_COUNT>
0

> <PUBCHEM_ISOTOPIC_ATOM_COUNT>
0

> <PUBCHEM_COMPONENT_COUNT>
1

> <PUBCHEM_CACTVS_TAUTO_COUNT>
1

> <PUBCHEM_CONFORMER_ID>
000A2E2300000001

> <PUBCHEM_MMFF94_ENERGY>
70.469

> <PUBCHEM_FEATURE_SELFOVERLAP>
45.792

> <PUBCHEM_SHAPE_FINGERPRINT>
10165383 225 16972799512467276602
10369192 42 16628243746006637554
1100329 8 18123475135334864853
11513181 2 18127978507662168862
12035759 4 18337390564337611103
12156800 1 15189629674600908661
12553582 1 18410856572851862697
12633257 1 16464168259214296568
12788726 201 18266197182856304476
13140716 1 17978527638674335521
133893 2 17024330543027413854
16945 1 17552940811431373333
19930381 70 16683453741925653974
21421861 104 18046930202622049361
23419403 2 17392428425491661733
23559900 14 17767127875018210772
2748010 2 16607449360652061837
3178227 256 18048623661588234003
34934 24 18341063912785765525
35225 105 17701238249280047320
57091435 65 18191884331059918138
58250162 1 18339920515060242162
6287921 2 18123749755982043402
70251023 43 17693941099718452422

> <PUBCHEM_SHAPE_MULTIPOLES>
546.49
6.46
5.26
1.88
0.9
1.94
0.66
-0.77
0.33
-0.68
0.07
1.87
-0.25
-2.55

> <PUBCHEM_SHAPE_SELFOVERLAP>
1142.947

> <PUBCHEM_SHAPE_VOLUME>
314.2

> <PUBCHEM_COORDINATE_TYPE>
2
5
10

$$$$
