652388
  -OEChem-09082001333D

 35 38  0     0  0  0  0  0  0999 V2000
    0.5403    2.3467    0.2842 O   0  0  0  0  0  0  0  0  0  0  0  0
   -3.7103    0.6041    1.0403 O   0  0  0  0  0  0  0  0  0  0  0  0
   -1.4901    0.1728   -1.6606 O   0  0  0  0  0  0  0  0  0  0  0  0
    0.2301    0.0416    0.4275 N   0  0  0  0  0  0  0  0  0  0  0  0
    2.0335   -1.4761    0.2487 N   0  0  0  0  0  0  0  0  0  0  0  0
   -1.1267    0.1963    0.6053 N   0  0  0  0  0  0  0  0  0  0  0  0
   -0.1322   -2.4071    0.5830 C   0  0  0  0  0  0  0  0  0  0  0  0
   -0.8269   -2.9541   -0.6186 C   0  0  0  0  0  0  0  0  0  0  0  0
    0.2917   -3.7227    0.0214 C   0  0  0  0  0  0  0  0  0  0  0  0
    0.7707   -1.2355    0.4098 C   0  0  0  0  0  0  0  0  0  0  0  0
    0.9799    1.2018    0.2749 C   0  0  0  0  0  0  0  0  0  0  0  0
    2.8919   -0.3726    0.0841 C   0  0  0  0  0  0  0  0  0  0  0  0
    2.4289    0.9526    0.0888 C   0  0  0  0  0  0  0  0  0  0  0  0
    4.2607   -0.6049   -0.0915 C   0  0  0  0  0  0  0  0  0  0  0  0
    3.3133    2.0232   -0.0782 C   0  0  0  0  0  0  0  0  0  0  0  0
   -1.9361    0.2686   -0.5154 C   0  0  0  0  0  0  0  0  0  0  0  0
    5.1467    0.4611   -0.2587 C   0  0  0  0  0  0  0  0  0  0  0  0
    4.6735    1.7721   -0.2519 C   0  0  0  0  0  0  0  0  0  0  0  0
   -3.3643    0.4951   -0.2466 C   0  0  0  0  0  0  0  0  0  0  0  0
   -4.3965    0.6126   -1.0999 C   0  0  0  0  0  0  0  0  0  0  0  0
   -5.5241    0.8190   -0.2697 C   0  0  0  0  0  0  0  0  0  0  0  0
   -5.0541    0.8055    1.0229 C   0  0  0  0  0  0  0  0  0  0  0  0
   -0.6652   -2.4424    1.5283 H   0  0  0  0  0  0  0  0  0  0  0  0
   -0.6331   -2.5121   -1.5881 H   0  0  0  0  0  0  0  0  0  0  0  0
   -1.8352   -3.3289   -0.4920 H   0  0  0  0  0  0  0  0  0  0  0  0
    0.0325   -4.6156    0.5784 H   0  0  0  0  0  0  0  0  0  0  0  0
    1.2119   -3.8123   -0.5423 H   0  0  0  0  0  0  0  0  0  0  0  0
   -1.4625    0.2792    1.5592 H   0  0  0  0  0  0  0  0  0  0  0  0
    4.6466   -1.6215   -0.0995 H   0  0  0  0  0  0  0  0  0  0  0  0
    2.9634    3.0516   -0.0757 H   0  0  0  0  0  0  0  0  0  0  0  0
    6.2070    0.2679   -0.3943 H   0  0  0  0  0  0  0  0  0  0  0  0
    5.3655    2.5991   -0.3822 H   0  0  0  0  0  0  0  0  0  0  0  0
   -4.3762    0.5618   -2.1789 H   0  0  0  0  0  0  0  0  0  0  0  0
   -6.5508    0.9598   -0.5751 H   0  0  0  0  0  0  0  0  0  0  0  0
   -5.5222    0.9187    1.9899 H   0  0  0  0  0  0  0  0  0  0  0  0
  1 11  2  0  0  0  0
  2 19  1  0  0  0  0
  2 22  1  0  0  0  0
  3 16  2  0  0  0  0
  4  6  1  0  0  0  0
  4 10  1  0  0  0  0
  4 11  1  0  0  0  0
  5 10  2  0  0  0  0
  5 12  1  0  0  0  0
  6 16  1  0  0  0  0
  6 28  1  0  0  0  0
  7  8  1  0  0  0  0
  7  9  1  0  0  0  0
  7 10  1  0  0  0  0
  7 23  1  0  0  0  0
  8  9  1  0  0  0  0
  8 24  1  0  0  0  0
  8 25  1  0  0  0  0
  9 26  1  0  0  0  0
  9 27  1  0  0  0  0
 11 13  1  0  0  0  0
 12 13  1  0  0  0  0
 12 14  2  0  0  0  0
 13 15  2  0  0  0  0
 14 17  1  0  0  0  0
 14 29  1  0  0  0  0
 15 18  1  0  0  0  0
 15 30  1  0  0  0  0
 16 19  1  0  0  0  0
 17 18  2  0  0  0  0
 17 31  1  0  0  0  0
 18 32  1  0  0  0  0
 19 20  2  0  0  0  0
 20 21  1  0  0  0  0
 20 33  1  0  0  0  0
 21 22  2  0  0  0  0
 21 34  1  0  0  0  0
 22 35  1  0  0  0  0
M  END
> <PUBCHEM_COMPOUND_CID>
652388

> <PUBCHEM_CONFORMER_RMSD>
0.8

> <PUBCHEM_CONFORMER_DIVERSEORDER>
1
6
7
8
10
5
9
11
4
3
2

> <PUBCHEM_MMFF94_PARTIAL_CHARGES>
35
1 -0.57
10 0.51
11 0.54
12 0.18
13 0.09
14 -0.15
15 -0.15
16 0.71
17 -0.15
18 -0.15
19 0.05
2 -0.28
20 -0.15
21 -0.15
22 -0.01
23 0.1
24 0.1
25 0.1
26 0.1
27 0.1
28 0.37
29 0.15
3 -0.57
30 0.15
31 0.15
32 0.15
33 0.15
34 0.15
35 0.15
4 -0.12
5 -0.63
6 -0.43
7 -0.1
8 -0.2
9 -0.2

> <PUBCHEM_EFFECTIVE_ROTOR_COUNT>
4.6

> <PUBCHEM_PHARMACOPHORE_FEATURES>
7
1 1 acceptor
1 2 acceptor
1 3 acceptor
1 6 donor
5 2 19 20 21 22 rings
6 12 13 14 15 17 18 rings
6 4 5 10 11 12 13 rings

> <PUBCHEM_HEAVY_ATOM_COUNT>
22

> <PUBCHEM_ATOM_DEF_STEREO_COUNT>
0

> <PUBCHEM_ATOM_UDEF_STEREO_COUNT>
0

> <PUBCHEM_BOND_DEF_STEREO_COUNT>
0

> <PUBCHEM_BOND_UDEF_STEREO_COUNT>
0

> <PUBCHEM_ISOTOPIC_ATOM_COUNT>
0

> <PUBCHEM_COMPONENT_COUNT>
1

> <PUBCHEM_CACTVS_TAUTO_COUNT>
2

> <PUBCHEM_CONFORMER_ID>
0009F46400000001

> <PUBCHEM_MMFF94_ENERGY>
46.5409

> <PUBCHEM_FEATURE_SELFOVERLAP>
35.552

> <PUBCHEM_SHAPE_FINGERPRINT>
10411042 1 17545601158498519842
10493431 412 18410293652678375669
10693767 8 17986949652846393710
10906281 52 18129678481909292940
1100329 8 18335695001976759442
11421498 54 17703516480697090611
11578080 2 17128731602988872866
11796584 16 14549018771152787540
12236239 1 17846780685243246881
12592029 89 18336263440280667307
12644460 14 18187360983004116178
12730499 353 18334300842485289099
12788726 201 17846229830081645152
12969540 114 18334565854493456821
13140716 1 18337383959368629850
13583140 156 16371542891709204236
13836976 161 18335140881842199342
14790565 3 18411989035205710537
15196674 1 18409730702856940138
17138139 8 17698971241694660031
18186145 218 18412256242369005548
19591789 44 18410572864170281122
204376 136 18409167718670387435
20645477 70 18263073328265826007
20739085 24 18190192203955387288
21033648 29 18261375767938307029
21033650 10 17058121894035293960
21236236 1 18338236089154105451
21307412 95 17986702336583020614
22182313 1 18195836096030621274
23402539 116 18272929440433054140
238 59 17756945031808474279
25 1 18410852161656698914
2748010 2 18124601031801308466
293599 30 18409731780946446420
3060560 45 18409726231748486414
335352 9 18410294710195073950
34934 24 18336824295144207048
350125 39 18194125333552746179
3759504 43 18186803624977086866
38695281 34 18342454799173636647
4340502 62 18410864261070214647
458136 41 18410856516964955899
474 4 18412826863339635355
5104073 3 18190452947826087280
53917941 68 18267570493794621932
633830 44 18201728310287257621
6669772 16 18412830153680970526
81228 2 17612015380267554203
8272917 22 18269275656383774727

> <PUBCHEM_SHAPE_MULTIPOLES>
420.2
10.4
2.95
0.94
4.75
3.21
-0.12
-6.64
-0.48
-1.1
0
0.84
-0.05
-0.26

> <PUBCHEM_SHAPE_SELFOVERLAP>
932.69

> <PUBCHEM_SHAPE_VOLUME>
224.1

> <PUBCHEM_COORDINATE_TYPE>
2
5
10

$$$$
