713065
  -OEChem-09082001333D

 39 41  0     0  0  0  0  0  0999 V2000
    8.1127   -0.8661    0.0163 Cl  0  0  0  0  0  0  0  0  0  0  0  0
   -0.8051   -0.0842    0.7042 S   0  0  0  0  0  0  0  0  0  0  0  0
    1.9395    1.7275    1.4534 O   0  0  0  0  0  0  0  0  0  0  0  0
   -3.4645   -0.5232    0.3143 N   0  0  0  0  0  0  0  0  0  0  0  0
   -4.0424    1.1045   -1.0290 N   0  0  0  0  0  0  0  0  0  0  0  0
   -2.6945    1.2235   -0.7553 N   0  0  0  0  0  0  0  0  0  0  0  0
    2.3631    0.4016   -0.4450 N   0  0  0  0  0  0  0  0  0  0  0  0
   -5.9365   -0.4345   -0.4121 C   0  0  0  0  0  0  0  0  0  0  0  0
   -7.0295    0.5537   -0.7150 C   0  0  0  0  0  0  0  0  0  0  0  0
   -6.8778    0.0081    0.6746 C   0  0  0  0  0  0  0  0  0  0  0  0
   -4.4858    0.0521   -0.3792 C   0  0  0  0  0  0  0  0  0  0  0  0
   -3.5579   -1.6981    1.1485 C   0  0  0  0  0  0  0  0  0  0  0  0
   -2.4068    0.2474    0.0346 C   0  0  0  0  0  0  0  0  0  0  0  0
   -3.2987   -2.9772    0.3711 C   0  0  0  0  0  0  0  0  0  0  0  0
    0.1341    1.2730   -0.0370 C   0  0  0  0  0  0  0  0  0  0  0  0
    1.5745    1.1757    0.4183 C   0  0  0  0  0  0  0  0  0  0  0  0
    3.7213    0.1022   -0.3361 C   0  0  0  0  0  0  0  0  0  0  0  0
    4.3400   -0.6918   -1.3017 C   0  0  0  0  0  0  0  0  0  0  0  0
    4.4606    0.5967    0.7384 C   0  0  0  0  0  0  0  0  0  0  0  0
    5.6980   -0.9914   -1.1926 C   0  0  0  0  0  0  0  0  0  0  0  0
    5.8185    0.2972    0.8473 C   0  0  0  0  0  0  0  0  0  0  0  0
    6.4372   -0.4968   -0.1181 C   0  0  0  0  0  0  0  0  0  0  0  0
   -6.0709   -1.4374   -0.8030 H   0  0  0  0  0  0  0  0  0  0  0  0
   -6.7770    1.5951   -0.8728 H   0  0  0  0  0  0  0  0  0  0  0  0
   -7.8719    0.2080   -1.3022 H   0  0  0  0  0  0  0  0  0  0  0  0
   -7.6170   -0.7041    1.0208 H   0  0  0  0  0  0  0  0  0  0  0  0
   -6.5117    0.6797    1.4417 H   0  0  0  0  0  0  0  0  0  0  0  0
   -2.8556   -1.6002    1.9819 H   0  0  0  0  0  0  0  0  0  0  0  0
   -4.5597   -1.7240    1.5908 H   0  0  0  0  0  0  0  0  0  0  0  0
   -4.0176   -3.0978   -0.4459 H   0  0  0  0  0  0  0  0  0  0  0  0
   -3.3860   -3.8457    1.0314 H   0  0  0  0  0  0  0  0  0  0  0  0
   -2.2947   -2.9817   -0.0658 H   0  0  0  0  0  0  0  0  0  0  0  0
    0.0778    1.2275   -1.1295 H   0  0  0  0  0  0  0  0  0  0  0  0
   -0.2672    2.2392    0.2867 H   0  0  0  0  0  0  0  0  0  0  0  0
    1.8960    0.0004   -1.2555 H   0  0  0  0  0  0  0  0  0  0  0  0
    3.7762   -1.0840   -2.1442 H   0  0  0  0  0  0  0  0  0  0  0  0
    4.0540    1.2179    1.5239 H   0  0  0  0  0  0  0  0  0  0  0  0
    6.1669   -1.6114   -1.9524 H   0  0  0  0  0  0  0  0  0  0  0  0
    6.3834    0.6892    1.6895 H   0  0  0  0  0  0  0  0  0  0  0  0
  1 22  1  0  0  0  0
  2 13  1  0  0  0  0
  2 15  1  0  0  0  0
  3 16  2  0  0  0  0
  4 11  1  0  0  0  0
  4 12  1  0  0  0  0
  4 13  1  0  0  0  0
  5  6  1  0  0  0  0
  5 11  2  0  0  0  0
  6 13  2  0  0  0  0
  7 16  1  0  0  0  0
  7 17  1  0  0  0  0
  7 35  1  0  0  0  0
  8  9  1  0  0  0  0
  8 10  1  0  0  0  0
  8 11  1  0  0  0  0
  8 23  1  0  0  0  0
  9 10  1  0  0  0  0
  9 24  1  0  0  0  0
  9 25  1  0  0  0  0
 10 26  1  0  0  0  0
 10 27  1  0  0  0  0
 12 14  1  0  0  0  0
 12 28  1  0  0  0  0
 12 29  1  0  0  0  0
 14 30  1  0  0  0  0
 14 31  1  0  0  0  0
 14 32  1  0  0  0  0
 15 16  1  0  0  0  0
 15 33  1  0  0  0  0
 15 34  1  0  0  0  0
 17 18  2  0  0  0  0
 17 19  1  0  0  0  0
 18 20  1  0  0  0  0
 18 36  1  0  0  0  0
 19 21  2  0  0  0  0
 19 37  1  0  0  0  0
 20 22  2  0  0  0  0
 20 38  1  0  0  0  0
 21 22  1  0  0  0  0
 21 39  1  0  0  0  0
M  END
> <PUBCHEM_COMPOUND_CID>
713065

> <PUBCHEM_CONFORMER_RMSD>
0.8

> <PUBCHEM_CONFORMER_DIVERSEORDER>
1
3
158
44
153
31
161
40
53
170
49
39
141
81
72
123
119
156
163
157
41
48
135
160
114
129
79
73
134
51
150
138
21
36
144
131
168
101
117
155
52
25
121
91
124
118
104
108
46
4
37
97
2
71
54
14
68
115
142
76
149
34
110
12
106
159
171
169
15
9
107
24
47
128
167
126
64
95
42
112
125
70
20
136
74
132
82
151
85
57
166
5
130
116
100
45
103
98
56
173
109
127
32
120
26
55
99
19
28
152
43
137
66
146
35
111
133
164
140
58
154
69
63
65
7
38
148
162
23
75
165
143
84
102
83
78
86
88
27
94
50
30
105
93
80
77
147
60
59
172
18
139
96
113
62
6
122
92
17
29
61
90
16
87
13
11
8
145
89
33
10
67
22

> <PUBCHEM_MMFF94_PARTIAL_CHARGES>
31
1 -0.18
10 -0.2
11 0.1
12 0.26
13 0.24
15 0.29
16 0.57
17 0.12
18 -0.15
19 -0.15
2 -0.29
20 -0.15
21 -0.15
22 0.18
23 0.1
24 0.1
25 0.1
26 0.1
27 0.1
3 -0.57
35 0.37
36 0.15
37 0.15
38 0.15
39 0.15
4 0.05
5 -0.34
6 -0.34
7 -0.55
8 -0.01
9 -0.2

> <PUBCHEM_EFFECTIVE_ROTOR_COUNT>
7.6

> <PUBCHEM_PHARMACOPHORE_FEATURES>
6
1 3 acceptor
1 7 donor
3 4 5 11 cation
3 4 6 13 cation
5 4 5 6 11 13 rings
6 17 18 19 20 21 22 rings

> <PUBCHEM_HEAVY_ATOM_COUNT>
22

> <PUBCHEM_ATOM_DEF_STEREO_COUNT>
0

> <PUBCHEM_ATOM_UDEF_STEREO_COUNT>
0

> <PUBCHEM_BOND_DEF_STEREO_COUNT>
0

> <PUBCHEM_BOND_UDEF_STEREO_COUNT>
0

> <PUBCHEM_ISOTOPIC_ATOM_COUNT>
0

> <PUBCHEM_COMPONENT_COUNT>
1

> <PUBCHEM_CACTVS_TAUTO_COUNT>
2

> <PUBCHEM_CONFORMER_ID>
000AE16900000001

> <PUBCHEM_MMFF94_ENERGY>
42.1475

> <PUBCHEM_FEATURE_SELFOVERLAP>
33.03

> <PUBCHEM_SHAPE_FINGERPRINT>
10299344 5 16298105380302377107
106641 1 13470680456294238406
10670039 82 17240757346529249309
10835480 77 18270115846149735704
11315181 36 18059859484622928961
11524674 6 18131068251542812311
11796584 16 18408323319562982578
12236239 1 15841552977005309133
12516196 113 17561362872720288136
12596602 18 14189580715130606494
12643181 29 18408322202692306251
13402501 40 18412829083695660055
13533116 47 16559034861710123278
13668630 136 17918277553746338239
13685833 64 18202283597734335396
13885169 127 18201440229656607513
13914758 101 16845581885744209537
14251751 18 18337113474817785138
14251752 14 17748825211251169266
14251764 18 15410892964008202440
14251764 46 16988841674541629444
14617045 38 18260548909587432851
14848160 23 18343019995748030546
15183329 4 17313104133747382416
15537594 2 17530958099162661387
15716309 27 16558747906244262484
20281389 69 9439404614842282118
21150785 3 16081091476267783236
21267235 1 17894353298213929529
21623969 137 17775289361474389550
2215653 11 18342737420937925815
22224240 67 15339113538127986508
2297311 6 18113899356063322877
23035841 295 18040435494947601953
23198884 109 14996003242230722669
23559900 14 18337668745243347233
3004659 81 17967814959794289108
34797466 226 18261117391643412956
3545911 37 18187080650673179147
4073 2 18338234976704477786
4325135 7 16732983107235177102
437815 12 18343863329672638553
44062 13 18262521510831083147
559249 180 18335983155690561155
59682541 35 16630235987924923402
59755656 215 18408038490132319923
59755656 520 14923944574440194673

> <PUBCHEM_SHAPE_MULTIPOLES>
432.68
22.03
1.69
1.13
8.9
1.01
0
4.5
2.35
-1.33
-0.3
0.36
-0.02
1.68

> <PUBCHEM_SHAPE_SELFOVERLAP>
885.7

> <PUBCHEM_SHAPE_VOLUME>
253.7

> <PUBCHEM_COORDINATE_TYPE>
2
5
10

$$$$
