2112024
  -OEChem-09082001403D

 34 36  0     0  0  0  0  0  0999 V2000
   -2.0458    1.9456   -1.4547 S   0  0  0  0  0  0  0  0  0  0  0  0
    2.4911   -2.0107   -1.5068 O   0  0  0  0  0  0  0  0  0  0  0  0
    0.0156   -0.4172    2.0707 O   0  0  0  0  0  0  0  0  0  0  0  0
   -2.8453   -1.9954    0.7389 O   0  0  0  0  0  0  0  0  0  0  0  0
    1.0376   -1.5851    0.2968 N   0  0  0  0  0  0  0  0  0  0  0  0
   -1.7375   -0.5726   -0.7362 N   0  0  0  0  0  0  0  0  0  0  0  0
   -3.5167    0.6043    0.2454 N   0  0  0  0  0  0  0  0  0  0  0  0
    0.3203   -2.8430    0.3592 C   0  0  0  0  0  0  0  0  0  0  0  0
    2.4681    0.0519   -0.3385 C   0  0  0  0  0  0  0  0  0  0  0  0
    1.7264    0.5278    0.7326 C   0  0  0  0  0  0  0  0  0  0  0  0
   -0.9372   -2.8328   -0.4993 C   0  0  0  0  0  0  0  0  0  0  0  0
    2.0299   -1.3142   -0.6218 C   0  0  0  0  0  0  0  0  0  0  0  0
    0.8031   -0.5271    1.1495 C   0  0  0  0  0  0  0  0  0  0  0  0
   -1.9521   -1.7819   -0.0764 C   0  0  0  0  0  0  0  0  0  0  0  0
    3.4329    0.8199   -0.9574 C   0  0  0  0  0  0  0  0  0  0  0  0
    1.9103    1.7972    1.2414 C   0  0  0  0  0  0  0  0  0  0  0  0
    3.6362    2.1100   -0.4591 C   0  0  0  0  0  0  0  0  0  0  0  0
    2.8824    2.5937    0.6297 C   0  0  0  0  0  0  0  0  0  0  0  0
   -2.5056    0.5363   -0.5533 C   0  0  0  0  0  0  0  0  0  0  0  0
   -3.0883    2.9466   -0.3769 C   0  0  0  0  0  0  0  0  0  0  0  0
   -4.1253    1.9467    0.1163 C   0  0  0  0  0  0  0  0  0  0  0  0
    0.9856   -3.6445    0.0204 H   0  0  0  0  0  0  0  0  0  0  0  0
    0.0509   -3.0320    1.4046 H   0  0  0  0  0  0  0  0  0  0  0  0
   -1.4315   -3.8095   -0.4378 H   0  0  0  0  0  0  0  0  0  0  0  0
   -0.6760   -2.6822   -1.5540 H   0  0  0  0  0  0  0  0  0  0  0  0
    4.0127    0.4482   -1.7940 H   0  0  0  0  0  0  0  0  0  0  0  0
    1.3307    2.1694    2.0779 H   0  0  0  0  0  0  0  0  0  0  0  0
   -0.9614   -0.4982   -1.3882 H   0  0  0  0  0  0  0  0  0  0  0  0
    4.3857    2.7512   -0.9158 H   0  0  0  0  0  0  0  0  0  0  0  0
    3.0613    3.6010    0.9968 H   0  0  0  0  0  0  0  0  0  0  0  0
   -3.5405    3.7913   -0.9026 H   0  0  0  0  0  0  0  0  0  0  0  0
   -2.4825    3.3207    0.4545 H   0  0  0  0  0  0  0  0  0  0  0  0
   -4.5211    2.2647    1.0867 H   0  0  0  0  0  0  0  0  0  0  0  0
   -4.9741    1.8858   -0.5764 H   0  0  0  0  0  0  0  0  0  0  0  0
  1 19  1  0  0  0  0
  1 20  1  0  0  0  0
  2 12  2  0  0  0  0
  3 13  2  0  0  0  0
  4 14  2  0  0  0  0
  5  8  1  0  0  0  0
  5 12  1  0  0  0  0
  5 13  1  0  0  0  0
  6 14  1  0  0  0  0
  6 19  1  0  0  0  0
  6 28  1  0  0  0  0
  7 19  2  0  0  0  0
  7 21  1  0  0  0  0
  8 11  1  0  0  0  0
  8 22  1  0  0  0  0
  8 23  1  0  0  0  0
  9 10  1  0  0  0  0
  9 12  1  0  0  0  0
  9 15  2  0  0  0  0
 10 13  1  0  0  0  0
 10 16  2  0  0  0  0
 11 14  1  0  0  0  0
 11 24  1  0  0  0  0
 11 25  1  0  0  0  0
 15 17  1  0  0  0  0
 15 26  1  0  0  0  0
 16 18  1  0  0  0  0
 16 27  1  0  0  0  0
 17 18  2  0  0  0  0
 17 29  1  0  0  0  0
 18 30  1  0  0  0  0
 20 21  1  0  0  0  0
 20 31  1  0  0  0  0
 20 32  1  0  0  0  0
 21 33  1  0  0  0  0
 21 34  1  0  0  0  0
M  END
> <PUBCHEM_COMPOUND_CID>
2112024

> <PUBCHEM_CONFORMER_RMSD>
0.8

> <PUBCHEM_CONFORMER_DIVERSEORDER>
1
20
29
15
24
34
5
31
6
25
22
21
27
8
2
4
28
11
9
26
13
18
17
30
33
23
14
32
19
7
3
16
10
12

> <PUBCHEM_MMFF94_PARTIAL_CHARGES>
26
1 -0.37
10 0.09
11 0.06
12 0.54
13 0.54
14 0.57
15 -0.15
16 -0.15
17 -0.15
18 -0.15
19 0.65
2 -0.57
20 0.23
21 0.25
26 0.15
27 0.15
28 0.37
29 0.15
3 -0.57
30 0.15
4 -0.57
5 -0.42
6 -0.49
7 -0.7
8 0.3
9 0.09

> <PUBCHEM_EFFECTIVE_ROTOR_COUNT>
5.8

> <PUBCHEM_PHARMACOPHORE_FEATURES>
7
1 2 acceptor
1 3 acceptor
1 4 acceptor
1 6 donor
5 1 7 19 20 21 rings
5 5 9 10 12 13 rings
6 9 10 15 16 17 18 rings

> <PUBCHEM_HEAVY_ATOM_COUNT>
21

> <PUBCHEM_ATOM_DEF_STEREO_COUNT>
0

> <PUBCHEM_ATOM_UDEF_STEREO_COUNT>
0

> <PUBCHEM_BOND_DEF_STEREO_COUNT>
0

> <PUBCHEM_BOND_UDEF_STEREO_COUNT>
0

> <PUBCHEM_ISOTOPIC_ATOM_COUNT>
0

> <PUBCHEM_COMPONENT_COUNT>
1

> <PUBCHEM_CACTVS_TAUTO_COUNT>
3

> <PUBCHEM_CONFORMER_ID>
00203A1800000001

> <PUBCHEM_MMFF94_ENERGY>
39.9912

> <PUBCHEM_FEATURE_SELFOVERLAP>
35.615

> <PUBCHEM_SHAPE_FINGERPRINT>
10165383 225 18339094713098145601
10498660 4 18335410318579376333
12173636 292 18410851096858276725
12363563 72 9655574145128122853
128993 33 18340197510312560765
13140716 1 18336256868959299979
13464514 151 18412548695709191268
13965767 371 17896021170668183500
14386348 128 18336262362465330917
14713325 29 18120378915429320834
15163728 17 17898598576991136972
151778 21 18194688064394646729
15210252 30 17254847368932491452
16945 1 17829595511790519058
17134986 127 18337666391627071087
18186145 218 17701832204945204752
18981168 100 18188472597912827757
20465049 17 18052550880488199477
21041028 32 16897922766315664159
21524375 3 18334847282489634731
23114952 82 18272385173682439582
23419403 2 16890387950247637707
23557571 272 18046067330680786711
238 59 17831830509808103109
25 1 18342741823268900100
2637199 183 18268719315926397965
350125 39 18409166606084116155
3524813 1 17769375255436311184
3797600 57 14202557138138996348
54672768 99 17974562498944618237
6287921 2 18263379133863465005
6442390 28 18336555996758350187
7808743 9 18334298716218476004

> <PUBCHEM_SHAPE_MULTIPOLES>
403.47
6.52
3.76
1.33
2.16
0.51
0.15
-5.05
-0.94
0.86
-0.27
-0.4
-0.06
0.88

> <PUBCHEM_SHAPE_SELFOVERLAP>
864.48

> <PUBCHEM_SHAPE_VOLUME>
225.9

> <PUBCHEM_COORDINATE_TYPE>
2
5
10

$$$$
