786409
  -OEChem-09082001413D

 36 39  0     0  0  0  0  0  0999 V2000
    4.4702   -2.4593   -0.0641 S   0  0  0  0  0  0  0  0  0  0  0  0
   -1.1277    1.2425    0.0154 O   0  0  0  0  0  0  0  0  0  0  0  0
    1.9945   -1.7900   -0.0532 N   0  0  0  0  0  0  0  0  0  0  0  0
   -0.2603   -0.9490   -0.0379 N   0  0  0  0  0  0  0  0  0  0  0  0
    3.2338    0.0680   -0.0016 N   0  0  0  0  0  0  0  0  0  0  0  0
    1.0963   -0.7676   -0.0289 C   0  0  0  0  0  0  0  0  0  0  0  0
    1.8859    0.3678    0.0026 C   0  0  0  0  0  0  0  0  0  0  0  0
    3.2379   -1.2356   -0.0352 C   0  0  0  0  0  0  0  0  0  0  0  0
    1.3859    1.7136    0.0350 C   0  0  0  0  0  0  0  0  0  0  0  0
    1.9566   -3.1635   -0.0891 C   0  0  0  0  0  0  0  0  0  0  0  0
    3.1935   -3.6889   -0.0996 C   0  0  0  0  0  0  0  0  0  0  0  0
    1.1385    2.3371    1.2580 C   0  0  0  0  0  0  0  0  0  0  0  0
    1.1474    2.3973   -1.1571 C   0  0  0  0  0  0  0  0  0  0  0  0
   -1.2882    0.0271   -0.0162 C   0  0  0  0  0  0  0  0  0  0  0  0
   -2.6827   -0.4874   -0.0062 C   0  0  0  0  0  0  0  0  0  0  0  0
    0.6530    3.6443    1.2888 C   0  0  0  0  0  0  0  0  0  0  0  0
    0.6618    3.7045   -1.1262 C   0  0  0  0  0  0  0  0  0  0  0  0
    0.4146    4.3281    0.0967 C   0  0  0  0  0  0  0  0  0  0  0  0
   -3.6861    0.2962   -0.5364 C   0  0  0  0  0  0  0  0  0  0  0  0
   -2.9272   -1.7333    0.5321 C   0  0  0  0  0  0  0  0  0  0  0  0
   -4.9940   -0.1884   -0.5280 C   0  0  0  0  0  0  0  0  0  0  0  0
   -4.2352   -2.2180    0.5406 C   0  0  0  0  0  0  0  0  0  0  0  0
   -5.2686   -1.4455    0.0105 C   0  0  0  0  0  0  0  0  0  0  0  0
   -0.5392   -1.9233   -0.1049 H   0  0  0  0  0  0  0  0  0  0  0  0
    1.0230   -3.7049   -0.1055 H   0  0  0  0  0  0  0  0  0  0  0  0
    3.4226   -4.7449   -0.1264 H   0  0  0  0  0  0  0  0  0  0  0  0
    1.3188    1.8177    2.1963 H   0  0  0  0  0  0  0  0  0  0  0  0
    1.3347    1.9254   -2.1188 H   0  0  0  0  0  0  0  0  0  0  0  0
    0.4598    4.1295    2.2410 H   0  0  0  0  0  0  0  0  0  0  0  0
    0.4756    4.2367   -2.0544 H   0  0  0  0  0  0  0  0  0  0  0  0
    0.0360    5.3458    0.1207 H   0  0  0  0  0  0  0  0  0  0  0  0
   -3.4886    1.2742   -0.9648 H   0  0  0  0  0  0  0  0  0  0  0  0
   -2.1597   -2.3496    0.9882 H   0  0  0  0  0  0  0  0  0  0  0  0
   -5.7986    0.4125   -0.9417 H   0  0  0  0  0  0  0  0  0  0  0  0
   -4.4510   -3.1931    0.9677 H   0  0  0  0  0  0  0  0  0  0  0  0
   -6.2873   -1.8220    0.0186 H   0  0  0  0  0  0  0  0  0  0  0  0
  1  8  1  0  0  0  0
  1 11  1  0  0  0  0
  2 14  2  0  0  0  0
  3  6  1  0  0  0  0
  3  8  1  0  0  0  0
  3 10  1  0  0  0  0
  4  6  1  0  0  0  0
  4 14  1  0  0  0  0
  4 24  1  0  0  0  0
  5  7  1  0  0  0  0
  5  8  2  0  0  0  0
  6  7  2  0  0  0  0
  7  9  1  0  0  0  0
  9 12  2  0  0  0  0
  9 13  1  0  0  0  0
 10 11  2  0  0  0  0
 10 25  1  0  0  0  0
 11 26  1  0  0  0  0
 12 16  1  0  0  0  0
 12 27  1  0  0  0  0
 13 17  2  0  0  0  0
 13 28  1  0  0  0  0
 14 15  1  0  0  0  0
 15 19  2  0  0  0  0
 15 20  1  0  0  0  0
 16 18  2  0  0  0  0
 16 29  1  0  0  0  0
 17 18  1  0  0  0  0
 17 30  1  0  0  0  0
 18 31  1  0  0  0  0
 19 21  1  0  0  0  0
 19 32  1  0  0  0  0
 20 22  2  0  0  0  0
 20 33  1  0  0  0  0
 21 23  2  0  0  0  0
 21 34  1  0  0  0  0
 22 23  1  0  0  0  0
 22 35  1  0  0  0  0
 23 36  1  0  0  0  0
M  END
> <PUBCHEM_COMPOUND_CID>
786409

> <PUBCHEM_CONFORMER_RMSD>
0.6

> <PUBCHEM_CONFORMER_DIVERSEORDER>
1
5
13
4
11
14
2
3
6
10
9
8
7
12

> <PUBCHEM_MMFF94_PARTIAL_CHARGES>
36
1 -0.16
10 -0.18
11 -0.05
12 -0.15
13 -0.15
14 0.54
15 0.09
16 -0.15
17 -0.15
18 -0.15
19 -0.15
2 -0.57
20 -0.15
21 -0.15
22 -0.15
23 -0.15
24 0.37
25 0.15
26 0.15
27 0.15
28 0.15
29 0.15
3 0.33
30 0.15
31 0.15
32 0.15
33 0.15
34 0.15
35 0.15
36 0.15
4 -0.49
5 -0.57
6 -0.09
7 0.17
8 0.24
9 0.05

> <PUBCHEM_EFFECTIVE_ROTOR_COUNT>
4

> <PUBCHEM_PHARMACOPHORE_FEATURES>
7
1 2 acceptor
1 4 donor
3 3 5 8 cation
5 1 3 8 10 11 rings
5 3 5 6 7 8 rings
6 15 19 20 21 22 23 rings
6 9 12 13 16 17 18 rings

> <PUBCHEM_HEAVY_ATOM_COUNT>
23

> <PUBCHEM_ATOM_DEF_STEREO_COUNT>
0

> <PUBCHEM_ATOM_UDEF_STEREO_COUNT>
0

> <PUBCHEM_BOND_DEF_STEREO_COUNT>
0

> <PUBCHEM_BOND_UDEF_STEREO_COUNT>
0

> <PUBCHEM_ISOTOPIC_ATOM_COUNT>
0

> <PUBCHEM_COMPONENT_COUNT>
1

> <PUBCHEM_CACTVS_TAUTO_COUNT>
2

> <PUBCHEM_CONFORMER_ID>
000BFFE900000001

> <PUBCHEM_MMFF94_ENERGY>
79.4662

> <PUBCHEM_FEATURE_SELFOVERLAP>
35.775

> <PUBCHEM_SHAPE_FINGERPRINT>
10050765 1 17834114148858717006
10165383 225 17184219638205948305
10411042 1 18338798905525833550
1100329 8 18051976119680617024
11045515 52 18262802852436603405
11578080 2 17486181467416271128
12107183 9 18270413677057612003
12403259 226 18334852823308338887
12553582 1 18266760007464448146
12788726 201 17974285426303897018
13004483 165 18194954154349934842
13052359 8 17401201175598607410
13134695 92 18343574149023205237
13140716 1 17908418404852433586
13533116 47 18339927142865153859
13631057 29 18194683666759527278
138480 1 18410575106180327812
13911987 19 18045529610119201604
13955234 65 18196094567451904867
14178000 15 18411702071223313548
14790565 3 18121504815310796692
14866123 147 17330555345938369403
14955137 171 18339641273772597392
15042514 8 18051416158528444745
15131766 46 15479525584064136722
15352361 1 18338234860392577607
15420108 30 17911212225776624400
15927050 60 17692531535229064348
16087824 20 17977950086466045997
17492 89 18337953519245772251
17868525 174 18411985741661769721
1813 80 18129676213533473991
19427546 20 17977115557081944606
20645477 70 18189893291833194659
21049683 271 18262529185778963588
21065198 57 18338236072374857587
21120745 212 18126307258888755884
21133410 127 17751912765301341637
21478907 32 18121780517328494451
21641784 216 18117580448131277676
221490 88 18262807375116690195
2255824 54 18266181823240441708
22849339 104 17117780050591400022
23419403 2 17342340070473082976
23557571 272 18053947255992351262
23558518 356 17830183398540559586
23559900 14 18336259145940891043
238 59 18048049745786837721
283562 15 18192434070068814898
3091708 16 9140578278844610928
3178227 256 18048896365592964074
3421961 26 18412260657526677675
350125 39 17689159328154250080
4015057 19 18338506526597355615
4409770 3 17758392968321160581
458136 41 17904782307309836561
46194498 28 17749390420637048197
495365 180 18124870424708208385
57124632 79 18054497282130956457
6442390 28 17329720223848806449
6443956 14 18409449189051216597
7164475 11 18120942698749108486
7364860 26 18339360897711525737
7471813 234 18059847381489627465
7808743 9 16679786874958228101
81228 2 18047197345461237000
9709674 26 18261677098975971539
9925002 15 17829353297315810996
9981440 41 17618214448537065257

> <PUBCHEM_SHAPE_MULTIPOLES>
456.37
8.37
5.45
0.92
9.39
4.22
-0.05
-9.68
0.43
-4.42
-0.24
-0.03
0.74
0.51

> <PUBCHEM_SHAPE_SELFOVERLAP>
1012.555

> <PUBCHEM_SHAPE_VOLUME>
243.9

> <PUBCHEM_COORDINATE_TYPE>
2
5
10

$$$$
