1021983
  -OEChem-09082001393D

 55 57  0     1  0  0  0  0  0999 V2000
    2.8826   -2.2104    0.6363 S   0  0  0  0  0  0  0  0  0  0  0  0
    3.3820   -2.1979    1.9983 O   0  0  0  0  0  0  0  0  0  0  0  0
    1.5954   -2.8083    0.3357 O   0  0  0  0  0  0  0  0  0  0  0  0
    1.2934   -0.4131   -2.0296 O   0  0  0  0  0  0  0  0  0  0  0  0
    2.9282   -0.6144   -0.0256 N   0  0  2  0  0  0  0  0  0  0  0  0
   -0.5211    0.1279   -0.6826 N   0  0  0  0  0  0  0  0  0  0  0  0
   -3.3702    0.2292   -0.1815 N   0  0  0  0  0  0  0  0  0  0  0  0
    4.2270    0.1009    0.0391 C   0  0  0  0  0  0  0  0  0  0  0  0
    4.3116    0.8668    1.3598 C   0  0  0  0  0  0  0  0  0  0  0  0
    4.3409    1.0416   -1.1611 C   0  0  0  0  0  0  0  0  0  0  0  0
    5.5784    1.7157    1.4326 C   0  0  0  0  0  0  0  0  0  0  0  0
    5.6078    1.8903   -1.0869 C   0  0  0  0  0  0  0  0  0  0  0  0
    5.6986    2.6515    0.2328 C   0  0  0  0  0  0  0  0  0  0  0  0
    1.7808    0.2657    0.1930 C   0  0  0  0  0  0  0  0  0  0  0  0
    0.8388   -0.0413   -0.9451 C   0  0  0  0  0  0  0  0  0  0  0  0
   -1.4968   -0.1433   -1.7352 C   0  0  0  0  0  0  0  0  0  0  0  0
   -1.0597    0.5609    0.6087 C   0  0  0  0  0  0  0  0  0  0  0  0
   -2.8059   -0.6921   -1.1721 C   0  0  0  0  0  0  0  0  0  0  0  0
   -2.4622    1.1587    0.4950 C   0  0  0  0  0  0  0  0  0  0  0  0
    4.1002   -3.0307   -0.3706 C   0  0  0  0  0  0  0  0  0  0  0  0
   -4.7386    0.2427    0.0778 C   0  0  0  0  0  0  0  0  0  0  0  0
   -5.5269   -0.9243   -0.0605 C   0  0  0  0  0  0  0  0  0  0  0  0
   -5.3988    1.4246    0.4902 C   0  0  0  0  0  0  0  0  0  0  0  0
   -6.8974   -0.9103    0.1986 C   0  0  0  0  0  0  0  0  0  0  0  0
   -6.7693    1.4385    0.7493 C   0  0  0  0  0  0  0  0  0  0  0  0
   -7.5186    0.2709    0.6035 C   0  0  0  0  0  0  0  0  0  0  0  0
    5.0628   -0.6013   -0.0146 H   0  0  0  0  0  0  0  0  0  0  0  0
    4.3100    0.1727    2.2071 H   0  0  0  0  0  0  0  0  0  0  0  0
    3.4673    1.5426    1.5258 H   0  0  0  0  0  0  0  0  0  0  0  0
    3.4861    1.7209   -1.2445 H   0  0  0  0  0  0  0  0  0  0  0  0
    4.3511    0.4553   -2.0885 H   0  0  0  0  0  0  0  0  0  0  0  0
    5.5795    2.3012    2.3592 H   0  0  0  0  0  0  0  0  0  0  0  0
    6.4556    1.0581    1.4709 H   0  0  0  0  0  0  0  0  0  0  0  0
    6.4868    1.2429   -1.1953 H   0  0  0  0  0  0  0  0  0  0  0  0
    5.6285    2.5976   -1.9236 H   0  0  0  0  0  0  0  0  0  0  0  0
    4.9000    3.4025    0.2756 H   0  0  0  0  0  0  0  0  0  0  0  0
    6.6498    3.1933    0.2815 H   0  0  0  0  0  0  0  0  0  0  0  0
    1.3505    0.0376    1.1715 H   0  0  0  0  0  0  0  0  0  0  0  0
    1.9783    1.3376    0.1483 H   0  0  0  0  0  0  0  0  0  0  0  0
   -1.0785   -0.8449   -2.4648 H   0  0  0  0  0  0  0  0  0  0  0  0
   -1.6719    0.8054   -2.2575 H   0  0  0  0  0  0  0  0  0  0  0  0
   -0.3952    1.3042    1.0596 H   0  0  0  0  0  0  0  0  0  0  0  0
   -1.0734   -0.3221    1.2591 H   0  0  0  0  0  0  0  0  0  0  0  0
   -3.5002   -0.8383   -2.0085 H   0  0  0  0  0  0  0  0  0  0  0  0
   -2.6289   -1.6662   -0.7000 H   0  0  0  0  0  0  0  0  0  0  0  0
   -2.8136    1.3853    1.5091 H   0  0  0  0  0  0  0  0  0  0  0  0
   -2.4240    2.0991   -0.0684 H   0  0  0  0  0  0  0  0  0  0  0  0
    4.0087   -4.1043   -0.1867 H   0  0  0  0  0  0  0  0  0  0  0  0
    5.1034   -2.7097   -0.0922 H   0  0  0  0  0  0  0  0  0  0  0  0
    3.8892   -2.8257   -1.4218 H   0  0  0  0  0  0  0  0  0  0  0  0
   -5.0744   -1.8663   -0.3620 H   0  0  0  0  0  0  0  0  0  0  0  0
   -4.8499    2.3571    0.6008 H   0  0  0  0  0  0  0  0  0  0  0  0
   -7.4807   -1.8198    0.0878 H   0  0  0  0  0  0  0  0  0  0  0  0
   -7.2540    2.3589    1.0616 H   0  0  0  0  0  0  0  0  0  0  0  0
   -8.5858    0.2819    0.8052 H   0  0  0  0  0  0  0  0  0  0  0  0
  1  2  2  0  0  0  0
  1  3  2  0  0  0  0
  1  5  1  0  0  0  0
  1 20  1  0  0  0  0
  4 15  2  0  0  0  0
  5  8  1  0  0  0  0
  5 14  1  0  0  0  0
  6 15  1  0  0  0  0
  6 16  1  0  0  0  0
  6 17  1  0  0  0  0
  7 18  1  0  0  0  0
  7 19  1  0  0  0  0
  7 21  1  0  0  0  0
  8  9  1  0  0  0  0
  8 10  1  0  0  0  0
  8 27  1  0  0  0  0
  9 11  1  0  0  0  0
  9 28  1  0  0  0  0
  9 29  1  0  0  0  0
 10 12  1  0  0  0  0
 10 30  1  0  0  0  0
 10 31  1  0  0  0  0
 11 13  1  0  0  0  0
 11 32  1  0  0  0  0
 11 33  1  0  0  0  0
 12 13  1  0  0  0  0
 12 34  1  0  0  0  0
 12 35  1  0  0  0  0
 13 36  1  0  0  0  0
 13 37  1  0  0  0  0
 14 15  1  0  0  0  0
 14 38  1  0  0  0  0
 14 39  1  0  0  0  0
 16 18  1  0  0  0  0
 16 40  1  0  0  0  0
 16 41  1  0  0  0  0
 17 19  1  0  0  0  0
 17 42  1  0  0  0  0
 17 43  1  0  0  0  0
 18 44  1  0  0  0  0
 18 45  1  0  0  0  0
 19 46  1  0  0  0  0
 19 47  1  0  0  0  0
 20 48  1  0  0  0  0
 20 49  1  0  0  0  0
 20 50  1  0  0  0  0
 21 22  2  0  0  0  0
 21 23  1  0  0  0  0
 22 24  1  0  0  0  0
 22 51  1  0  0  0  0
 23 25  2  0  0  0  0
 23 52  1  0  0  0  0
 24 26  2  0  0  0  0
 24 53  1  0  0  0  0
 25 26  1  0  0  0  0
 25 54  1  0  0  0  0
 26 55  1  0  0  0  0
M  END
> <PUBCHEM_COMPOUND_CID>
1021983

> <PUBCHEM_CONFORMER_RMSD>
1

> <PUBCHEM_CONFORMER_DIVERSEORDER>
1
6
27
11
12
28
24
26
5
37
16
21
25
30
3
29
14
15
34
36
33
13
7
32
4
31
20
17
9
2
19
35
22
23
10
18
8

> <PUBCHEM_MMFF94_PARTIAL_CHARGES>
26
1 1.33
14 0.42
15 0.57
16 0.3
17 0.3
18 0.37
19 0.37
2 -0.65
20 0.11
21 0.1
22 -0.15
23 -0.15
24 -0.15
25 -0.15
26 -0.15
3 -0.65
4 -0.57
5 -0.85
51 0.15
52 0.15
53 0.15
54 0.15
55 0.15
6 -0.66
7 -0.84
8 0.36

> <PUBCHEM_EFFECTIVE_ROTOR_COUNT>
8.4

> <PUBCHEM_PHARMACOPHORE_FEATURES>
7
1 2 acceptor
1 3 acceptor
1 4 acceptor
1 7 cation
6 21 22 23 24 25 26 rings
6 6 7 16 17 18 19 rings
6 8 9 10 11 12 13 rings

> <PUBCHEM_HEAVY_ATOM_COUNT>
26

> <PUBCHEM_ATOM_DEF_STEREO_COUNT>
0

> <PUBCHEM_ATOM_UDEF_STEREO_COUNT>
0

> <PUBCHEM_BOND_DEF_STEREO_COUNT>
0

> <PUBCHEM_BOND_UDEF_STEREO_COUNT>
0

> <PUBCHEM_ISOTOPIC_ATOM_COUNT>
0

> <PUBCHEM_COMPONENT_COUNT>
1

> <PUBCHEM_CACTVS_TAUTO_COUNT>
1

> <PUBCHEM_CONFORMER_ID>
000F981F00000001

> <PUBCHEM_MMFF94_ENERGY>
72.5468

> <PUBCHEM_FEATURE_SELFOVERLAP>
35.54

> <PUBCHEM_SHAPE_FINGERPRINT>
10 15 18060424625690010107
10165383 225 18260834834930938588
10554248 39 17916295044667491493
10595046 47 18410858746458872281
10670039 82 15913061888602148976
11991303 11 15051727629835890837
12236239 1 18342178860499116349
12516196 113 17822012021485965157
12596602 18 18342460327123405899
12616971 3 17987784233663451350
12788726 201 17418100871328674865
13073987 5 18409170983404623865
13533116 47 18337956692482402890
13835254 42 18187929417668542261
13862211 1 14273456994442342241
13955234 65 18335696105941142226
14251752 14 8070037653469522581
14251757 52 17632859732876187361
14251764 18 18202284715470031881
14341114 328 18272928328105232487
14347424 109 18337388223949368627
14461889 52 18260833747259656219
14565420 104 18336259154673413392
146900 427 18411132558797111008
15183329 4 9727642717186511081
15188451 53 12540681640005842628
15685185 35 17976826703178209868
16992610 120 18115884061205315620
17349148 13 12107781870256663028
17844677 252 18114747010529143733
1813 80 16370732496037002863
19377110 9 18335131012186746337
1979834 28 17822010917526116764
20511986 3 18334849507773168063
20567600 234 17894631495429226956
21033648 29 15554151675296430350
21049683 271 18116154364850827846
21130935 74 18410017603163732291
220451 1 18272653450609517863
22079108 93 18338231669563633964
22149856 69 18115046129848464409
22224240 67 17967531324459500112
23081809 10 17988918951776072677
23198884 109 11312058751721635677
239999 70 18335986368215413174
27425 322 18128257985958654012
3411729 13 18411982468753992254
3663271 9 18411140225883284491
394071 54 17386017186128249772
4073 2 18261398892321336091
4340502 62 18334853935541558866
5104073 3 18116142282110486801
54076057 255 16558751264761145088
5758199 1 18335422421713190508
70251023 43 18196660592881887242
8988823 20 15647052694361885260

> <PUBCHEM_SHAPE_MULTIPOLES>
506.37
19.16
2.55
1.43
23.59
1.36
-0.16
-7.57
4.22
-4.72
0.6
-1.37
0.09
-1

> <PUBCHEM_SHAPE_SELFOVERLAP>
1032.194

> <PUBCHEM_SHAPE_VOLUME>
294.2

> <PUBCHEM_COORDINATE_TYPE>
2
5
10

$$$$
