645297
  -OEChem-09082001393D

 64 66  0     0  0  0  0  0  0999 V2000
   -2.5895   -0.9175    1.6995 O   0  0  0  0  0  0  0  0  0  0  0  0
   -0.8327   -3.4504    0.3790 O   0  0  0  0  0  0  0  0  0  0  0  0
    4.2393   -1.9073    2.0895 O   0  0  0  0  0  0  0  0  0  0  0  0
   -4.4845   -0.3511    0.4788 N   0  0  0  0  0  0  0  0  0  0  0  0
   -1.2461   -1.4077   -0.6909 N   0  0  0  0  0  0  0  0  0  0  0  0
    3.8953   -0.7433    0.0760 N   0  0  0  0  0  0  0  0  0  0  0  0
    4.1491    1.5361   -0.5508 N   0  0  0  0  0  0  0  0  0  0  0  0
   -5.2283    0.2635    1.5505 C   0  0  0  0  0  0  0  0  0  0  0  0
   -4.9989    1.7690    1.6114 C   0  0  0  0  0  0  0  0  0  0  0  0
   -6.7311    0.1600    1.3235 C   0  0  0  0  0  0  0  0  0  0  0  0
   -5.9657    2.3577    0.5855 C   0  0  0  0  0  0  0  0  0  0  0  0
   -7.0548    1.3066    0.3696 C   0  0  0  0  0  0  0  0  0  0  0  0
   -3.2185   -0.8939    0.6445 C   0  0  0  0  0  0  0  0  0  0  0  0
   -2.7097   -1.5173   -0.6378 C   0  0  0  0  0  0  0  0  0  0  0  0
   -0.6393   -0.2400   -1.3001 C   0  0  0  0  0  0  0  0  0  0  0  0
   -0.4227   -2.4194   -0.1592 C   0  0  0  0  0  0  0  0  0  0  0  0
    1.0785   -2.1724   -0.2729 C   0  0  0  0  0  0  0  0  0  0  0  0
   -0.3374   -0.2193   -2.6617 C   0  0  0  0  0  0  0  0  0  0  0  0
    1.9243   -3.3040    0.3211 C   0  0  0  0  0  0  0  0  0  0  0  0
   -0.3579    0.8721   -0.5064 C   0  0  0  0  0  0  0  0  0  0  0  0
    0.2250    2.0049   -1.0743 C   0  0  0  0  0  0  0  0  0  0  0  0
    3.4370   -3.1072    0.1863 C   0  0  0  0  0  0  0  0  0  0  0  0
    0.2457    0.9134   -3.2296 C   0  0  0  0  0  0  0  0  0  0  0  0
   -0.6281   -1.3958   -3.5364 C   0  0  0  0  0  0  0  0  0  0  0  0
    0.5269    2.0256   -2.4360 C   0  0  0  0  0  0  0  0  0  0  0  0
    0.5262    3.1941   -0.2261 C   0  0  0  0  0  0  0  0  0  0  0  0
    3.9175   -1.8580    0.9058 C   0  0  0  0  0  0  0  0  0  0  0  0
    4.2389    0.5879    0.4085 C   0  0  0  0  0  0  0  0  0  0  0  0
    4.6503    0.8356    1.7083 C   0  0  0  0  0  0  0  0  0  0  0  0
    4.9911    2.1410    2.0451 C   0  0  0  0  0  0  0  0  0  0  0  0
    4.4887    2.7929   -0.1863 C   0  0  0  0  0  0  0  0  0  0  0  0
    4.9115    3.1441    1.0855 C   0  0  0  0  0  0  0  0  0  0  0  0
   -4.9372   -0.2143    2.4922 H   0  0  0  0  0  0  0  0  0  0  0  0
   -5.2654    2.1416    2.6083 H   0  0  0  0  0  0  0  0  0  0  0  0
   -3.9631    2.0614    1.4109 H   0  0  0  0  0  0  0  0  0  0  0  0
   -7.0452   -0.8083    0.9211 H   0  0  0  0  0  0  0  0  0  0  0  0
   -7.2601    0.3198    2.2711 H   0  0  0  0  0  0  0  0  0  0  0  0
   -6.3825    3.3075    0.9359 H   0  0  0  0  0  0  0  0  0  0  0  0
   -5.4478    2.5566   -0.3598 H   0  0  0  0  0  0  0  0  0  0  0  0
   -7.0322    0.9568   -0.6691 H   0  0  0  0  0  0  0  0  0  0  0  0
   -8.0548    1.7112    0.5558 H   0  0  0  0  0  0  0  0  0  0  0  0
   -4.9018   -0.3525   -0.4476 H   0  0  0  0  0  0  0  0  0  0  0  0
   -3.1371   -1.0302   -1.5203 H   0  0  0  0  0  0  0  0  0  0  0  0
   -3.0005   -2.5731   -0.6419 H   0  0  0  0  0  0  0  0  0  0  0  0
    1.3000   -1.2480    0.2682 H   0  0  0  0  0  0  0  0  0  0  0  0
    1.3543   -2.0530   -1.3243 H   0  0  0  0  0  0  0  0  0  0  0  0
    1.6545   -4.2512   -0.1626 H   0  0  0  0  0  0  0  0  0  0  0  0
    1.6724   -3.4159    1.3836 H   0  0  0  0  0  0  0  0  0  0  0  0
   -0.5900    0.8586    0.5559 H   0  0  0  0  0  0  0  0  0  0  0  0
    3.7202   -3.0629   -0.8719 H   0  0  0  0  0  0  0  0  0  0  0  0
    3.9628   -3.9673    0.6169 H   0  0  0  0  0  0  0  0  0  0  0  0
    0.4873    0.9468   -4.2886 H   0  0  0  0  0  0  0  0  0  0  0  0
   -0.2981   -1.2253   -4.5671 H   0  0  0  0  0  0  0  0  0  0  0  0
   -1.7048   -1.5908   -3.5701 H   0  0  0  0  0  0  0  0  0  0  0  0
   -0.1110   -2.2913   -3.1795 H   0  0  0  0  0  0  0  0  0  0  0  0
    0.9805    2.9017   -2.8919 H   0  0  0  0  0  0  0  0  0  0  0  0
   -0.3963    3.7384   -0.0003 H   0  0  0  0  0  0  0  0  0  0  0  0
    0.9977    2.8871    0.7137 H   0  0  0  0  0  0  0  0  0  0  0  0
    1.2174    3.8820   -0.7244 H   0  0  0  0  0  0  0  0  0  0  0  0
    3.5992   -0.8652   -0.8893 H   0  0  0  0  0  0  0  0  0  0  0  0
    4.7363    0.1129    2.5028 H   0  0  0  0  0  0  0  0  0  0  0  0
    5.3181    2.3779    3.0532 H   0  0  0  0  0  0  0  0  0  0  0  0
    4.4078    3.5384   -0.9705 H   0  0  0  0  0  0  0  0  0  0  0  0
    5.1715    4.1686    1.3257 H   0  0  0  0  0  0  0  0  0  0  0  0
  1 13  2  0  0  0  0
  2 16  2  0  0  0  0
  3 27  2  0  0  0  0
  4  8  1  0  0  0  0
  4 13  1  0  0  0  0
  4 42  1  0  0  0  0
  5 14  1  0  0  0  0
  5 15  1  0  0  0  0
  5 16  1  0  0  0  0
  6 27  1  0  0  0  0
  6 28  1  0  0  0  0
  6 60  1  0  0  0  0
  7 28  1  0  0  0  0
  7 31  2  0  0  0  0
  8  9  1  0  0  0  0
  8 10  1  0  0  0  0
  8 33  1  0  0  0  0
  9 11  1  0  0  0  0
  9 34  1  0  0  0  0
  9 35  1  0  0  0  0
 10 12  1  0  0  0  0
 10 36  1  0  0  0  0
 10 37  1  0  0  0  0
 11 12  1  0  0  0  0
 11 38  1  0  0  0  0
 11 39  1  0  0  0  0
 12 40  1  0  0  0  0
 12 41  1  0  0  0  0
 13 14  1  0  0  0  0
 14 43  1  0  0  0  0
 14 44  1  0  0  0  0
 15 18  2  0  0  0  0
 15 20  1  0  0  0  0
 16 17  1  0  0  0  0
 17 19  1  0  0  0  0
 17 45  1  0  0  0  0
 17 46  1  0  0  0  0
 18 23  1  0  0  0  0
 18 24  1  0  0  0  0
 19 22  1  0  0  0  0
 19 47  1  0  0  0  0
 19 48  1  0  0  0  0
 20 21  2  0  0  0  0
 20 49  1  0  0  0  0
 21 25  1  0  0  0  0
 21 26  1  0  0  0  0
 22 27  1  0  0  0  0
 22 50  1  0  0  0  0
 22 51  1  0  0  0  0
 23 25  2  0  0  0  0
 23 52  1  0  0  0  0
 24 53  1  0  0  0  0
 24 54  1  0  0  0  0
 24 55  1  0  0  0  0
 25 56  1  0  0  0  0
 26 57  1  0  0  0  0
 26 58  1  0  0  0  0
 26 59  1  0  0  0  0
 28 29  2  0  0  0  0
 29 30  1  0  0  0  0
 29 61  1  0  0  0  0
 30 32  2  0  0  0  0
 30 62  1  0  0  0  0
 31 32  1  0  0  0  0
 31 63  1  0  0  0  0
 32 64  1  0  0  0  0
M  END
> <PUBCHEM_COMPOUND_CID>
645297

> <PUBCHEM_CONFORMER_RMSD>
1.4

> <PUBCHEM_CONFORMER_DIVERSEORDER>
1
5
42
52
122
48
46
44
80
21
90
94
140
83
19
57
125
2
120
129
139
89
126
110
108
99
36
92
96
50
6
68
51
54
137
16
107
62
109
4
72
138
127
70
143
98
134
38
113
33
14
66
35
30
28
59
105
49
133
24
45
39
93
8
101
20
58
95
75
86
115
87
34
40
117
104
74
60
136
26
31
76
116
102
145
111
22
9
65
79
100
18
37
63
67
41
27
132
97
121
61
25
47
85
32
77
144
55
43
128
103
71
23
88
15
131
84
118
124
73
10
17
106
64
135
69
112
81
114
130
3
82
91
13
12
53
142
119
141
11
29
7
146
123
78
56

> <PUBCHEM_MMFF94_PARTIAL_CHARGES>
36
1 -0.57
13 0.57
14 0.36
15 0.12
16 0.57
17 0.06
18 -0.14
2 -0.57
20 -0.15
21 -0.14
22 0.06
23 -0.15
24 0.14
25 -0.15
26 0.14
27 0.57
28 0.43
29 -0.15
3 -0.57
30 -0.15
31 0.16
32 -0.15
4 -0.73
42 0.37
49 0.15
5 -0.48
52 0.15
56 0.15
6 -0.55
60 0.37
61 0.15
62 0.15
63 0.15
64 0.15
7 -0.62
8 0.3

> <PUBCHEM_EFFECTIVE_ROTOR_COUNT>
13

> <PUBCHEM_PHARMACOPHORE_FEATURES>
9
1 1 acceptor
1 2 acceptor
1 3 acceptor
1 4 donor
1 6 donor
1 7 acceptor
5 8 9 10 11 12 rings
6 15 18 20 21 23 25 rings
6 7 28 29 30 31 32 rings

> <PUBCHEM_HEAVY_ATOM_COUNT>
32

> <PUBCHEM_ATOM_DEF_STEREO_COUNT>
0

> <PUBCHEM_ATOM_UDEF_STEREO_COUNT>
0

> <PUBCHEM_BOND_DEF_STEREO_COUNT>
0

> <PUBCHEM_BOND_UDEF_STEREO_COUNT>
0

> <PUBCHEM_ISOTOPIC_ATOM_COUNT>
0

> <PUBCHEM_COMPONENT_COUNT>
1

> <PUBCHEM_CACTVS_TAUTO_COUNT>
6

> <PUBCHEM_CONFORMER_ID>
0009D8B100000001

> <PUBCHEM_MMFF94_ENERGY>
99.2815

> <PUBCHEM_FEATURE_SELFOVERLAP>
45.673

> <PUBCHEM_SHAPE_FINGERPRINT>
10006869 2 18272368624952102992
10653451 467 17825374186146604517
10674148 151 18199762478883510292
10693767 8 8646485181347349361
10764073 3 18122063100686544269
12128747 34 18333452071180577329
12422481 6 17821728308509507621
12838863 1 10735608947348379036
14004853 49 17533789462037972652
14114211 80 17973729362042315718
14251764 30 13912596195484539297
14747282 540 13957984774424128353
14765038 42 18046342209389739784
14840074 17 17533214400476820468
15163728 17 16343160072732576699
15420108 30 18341609377526599694
15840311 113 18341335492537069011
17974551 9 17973729365652033297
17980427 23 18060129922003350007
1813 80 16225771813251666757
20429552 37 18260268508394458185
20567600 234 18413390921800872691
20642791 268 18262237853667633940
21304303 94 9655279407212787237
21344244 181 10519694618732938173
3380486 145 17605814001632842646
4112364 45 18272095955412314185
56638632 10 18268981167303463573
57527293 21 17241040028650018218
7918774 8 13912318023369379397

> <PUBCHEM_SHAPE_MULTIPOLES>
621.01
13.93
4.21
2.67
15.66
0.66
-2.48
-9.39
11.63
-4.31
0.67
-0.26
-0.22
-0.65

> <PUBCHEM_SHAPE_SELFOVERLAP>
1297.636

> <PUBCHEM_SHAPE_VOLUME>
350.2

> <PUBCHEM_COORDINATE_TYPE>
2
5
10

$$$$
